<routes>
        <vType id="standard_car" length="3.0" maxSpeed="15" minGap="1.0" accel="1.0" decel="4.0" />
        <route id="N_S" edges="gneE1 -gneE3"/>
        <route id="N_E" edges="gneE1 -gneE0"/>
        <route id="N_W" edges="gneE1 -gneE2"/>
        <route id="S_W" edges="gneE3 -gneE2"/>
        <route id="S_E" edges="gneE3 -gneE0"/>
        <route id="S_N" edges="gneE3 -gneE1"/>
        
        <route id="W_E" edges="gneE2 -gneE0"/>
        <route id="W_N" edges="gneE2 -gneE1"/>
        <route id="W_S" edges="gneE2 -gneE3"/>
        <route id="E_N" edges="gneE0 -gneE1"/>
        <route id="E_S" edges="gneE0 -gneE3"/>
        <route id="E_W" edges="gneE0 -gneE2"/>
        
    <vehicle id='W_E_0' type='standard_car' route='W_E' depart='55.0' departLane='random' departSpeed='10' />
    <vehicle id='S_N_1' type='standard_car' route='S_N' depart='60.0' departLane='random' departSpeed='10' />
    <vehicle id='S_W_2' type='standard_car' route='S_W' depart='66.0' departLane='random' departSpeed='10' />
    <vehicle id='W_E_3' type='standard_car' route='W_E' depart='73.0' departLane='random' departSpeed='10' />
    <vehicle id='W_E_4' type='standard_car' route='W_E' depart='83.0' departLane='random' departSpeed='10' />
    <vehicle id='N_E_5' type='standard_car' route='N_E' depart='116.0' departLane='random' departSpeed='10' />
    <vehicle id='W_S_6' type='standard_car' route='W_S' depart='138.0' departLane='random' departSpeed='10' />
    <vehicle id='E_S_7' type='standard_car' route='E_S' depart='138.0' departLane='random' departSpeed='10' />
    <vehicle id='S_W_8' type='standard_car' route='S_W' depart='155.0' departLane='random' departSpeed='10' />
    <vehicle id='W_S_9' type='standard_car' route='W_S' depart='157.0' departLane='random' departSpeed='10' />
    <vehicle id='N_S_10' type='standard_car' route='N_S' depart='159.0' departLane='random' departSpeed='10' />
    <vehicle id='W_E_11' type='standard_car' route='W_E' depart='162.0' departLane='random' departSpeed='10' />
    <vehicle id='W_N_12' type='standard_car' route='W_N' depart='172.0' departLane='random' departSpeed='10' />
    <vehicle id='W_N_13' type='standard_car' route='W_N' depart='174.0' departLane='random' departSpeed='10' />
    <vehicle id='E_S_14' type='standard_car' route='E_S' depart='175.0' departLane='random' departSpeed='10' />
    <vehicle id='N_S_15' type='standard_car' route='N_S' depart='176.0' departLane='random' departSpeed='10' />
    <vehicle id='S_N_16' type='standard_car' route='S_N' depart='180.0' departLane='random' departSpeed='10' />
    <vehicle id='W_E_17' type='standard_car' route='W_E' depart='183.0' departLane='random' departSpeed='10' />
    <vehicle id='S_N_18' type='standard_car' route='S_N' depart='190.0' departLane='random' departSpeed='10' />
    <vehicle id='S_N_19' type='standard_car' route='S_N' depart='195.0' departLane='random' departSpeed='10' />
    <vehicle id='E_S_20' type='standard_car' route='E_S' depart='203.0' departLane='random' departSpeed='10' />
    <vehicle id='S_W_21' type='standard_car' route='S_W' depart='209.0' departLane='random' departSpeed='10' />
    <vehicle id='W_E_22' type='standard_car' route='W_E' depart='212.0' departLane='random' departSpeed='10' />
    <vehicle id='W_E_23' type='standard_car' route='W_E' depart='213.0' departLane='random' departSpeed='10' />
    <vehicle id='W_N_24' type='standard_car' route='W_N' depart='216.0' departLane='random' departSpeed='10' />
    <vehicle id='S_N_25' type='standard_car' route='S_N' depart='223.0' departLane='random' departSpeed='10' />
    <vehicle id='W_E_26' type='standard_car' route='W_E' depart='228.0' departLane='random' departSpeed='10' />
    <vehicle id='S_W_27' type='standard_car' route='S_W' depart='229.0' departLane='random' departSpeed='10' />
    <vehicle id='S_N_28' type='standard_car' route='S_N' depart='230.0' departLane='random' departSpeed='10' />
    <vehicle id='N_S_29' type='standard_car' route='N_S' depart='232.0' departLane='random' departSpeed='10' />
    <vehicle id='E_W_30' type='standard_car' route='E_W' depart='233.0' departLane='random' departSpeed='10' />
    <vehicle id='W_N_31' type='standard_car' route='W_N' depart='235.0' departLane='random' departSpeed='10' />
    <vehicle id='W_N_32' type='standard_car' route='W_N' depart='241.0' departLane='random' departSpeed='10' />
    <vehicle id='W_N_33' type='standard_car' route='W_N' depart='241.0' departLane='random' departSpeed='10' />
    <vehicle id='E_W_34' type='standard_car' route='E_W' depart='243.0' departLane='random' departSpeed='10' />
    <vehicle id='W_N_35' type='standard_car' route='W_N' depart='243.0' departLane='random' departSpeed='10' />
    <vehicle id='W_N_36' type='standard_car' route='W_N' depart='244.0' departLane='random' departSpeed='10' />
    <vehicle id='W_N_37' type='standard_car' route='W_N' depart='246.0' departLane='random' departSpeed='10' />
    <vehicle id='W_E_38' type='standard_car' route='W_E' depart='262.0' departLane='random' departSpeed='10' />
    <vehicle id='W_E_39' type='standard_car' route='W_E' depart='263.0' departLane='random' departSpeed='10' />
    <vehicle id='N_S_40' type='standard_car' route='N_S' depart='265.0' departLane='random' departSpeed='10' />
    <vehicle id='S_W_41' type='standard_car' route='S_W' depart='265.0' departLane='random' departSpeed='10' />
    <vehicle id='W_E_42' type='standard_car' route='W_E' depart='267.0' departLane='random' departSpeed='10' />
    <vehicle id='N_S_43' type='standard_car' route='N_S' depart='267.0' departLane='random' departSpeed='10' />
    <vehicle id='W_N_44' type='standard_car' route='W_N' depart='268.0' departLane='random' departSpeed='10' />
    <vehicle id='W_E_45' type='standard_car' route='W_E' depart='274.0' departLane='random' departSpeed='10' />
    <vehicle id='W_E_46' type='standard_car' route='W_E' depart='279.0' departLane='random' departSpeed='10' />
    <vehicle id='N_S_47' type='standard_car' route='N_S' depart='280.0' departLane='random' departSpeed='10' />
    <vehicle id='E_S_48' type='standard_car' route='E_S' depart='285.0' departLane='random' departSpeed='10' />
    <vehicle id='N_S_49' type='standard_car' route='N_S' depart='292.0' departLane='random' departSpeed='10' />
    <vehicle id='W_N_50' type='standard_car' route='W_N' depart='295.0' departLane='random' departSpeed='10' />
    <vehicle id='N_S_51' type='standard_car' route='N_S' depart='296.0' departLane='random' departSpeed='10' />
    <vehicle id='S_N_52' type='standard_car' route='S_N' depart='299.0' departLane='random' departSpeed='10' />
    <vehicle id='S_N_53' type='standard_car' route='S_N' depart='301.0' departLane='random' departSpeed='10' />
    <vehicle id='S_W_54' type='standard_car' route='S_W' depart='302.0' departLane='random' departSpeed='10' />
    <vehicle id='S_N_55' type='standard_car' route='S_N' depart='302.0' departLane='random' departSpeed='10' />
    <vehicle id='N_S_56' type='standard_car' route='N_S' depart='306.0' departLane='random' departSpeed='10' />
    <vehicle id='W_N_57' type='standard_car' route='W_N' depart='312.0' departLane='random' departSpeed='10' />
    <vehicle id='E_W_58' type='standard_car' route='E_W' depart='312.0' departLane='random' departSpeed='10' />
    <vehicle id='W_N_59' type='standard_car' route='W_N' depart='317.0' departLane='random' departSpeed='10' />
    <vehicle id='S_N_60' type='standard_car' route='S_N' depart='317.0' departLane='random' departSpeed='10' />
    <vehicle id='S_N_61' type='standard_car' route='S_N' depart='320.0' departLane='random' departSpeed='10' />
    <vehicle id='N_S_62' type='standard_car' route='N_S' depart='324.0' departLane='random' departSpeed='10' />
    <vehicle id='S_N_63' type='standard_car' route='S_N' depart='324.0' departLane='random' departSpeed='10' />
    <vehicle id='N_S_64' type='standard_car' route='N_S' depart='324.0' departLane='random' departSpeed='10' />
    <vehicle id='N_S_65' type='standard_car' route='N_S' depart='327.0' departLane='random' departSpeed='10' />
    <vehicle id='W_N_66' type='standard_car' route='W_N' depart='332.0' departLane='random' departSpeed='10' />
    <vehicle id='N_E_67' type='standard_car' route='N_E' depart='334.0' departLane='random' departSpeed='10' />
    <vehicle id='S_W_68' type='standard_car' route='S_W' depart='338.0' departLane='random' departSpeed='10' />
    <vehicle id='S_N_69' type='standard_car' route='S_N' depart='339.0' departLane='random' departSpeed='10' />
    <vehicle id='E_W_70' type='standard_car' route='E_W' depart='341.0' departLane='random' departSpeed='10' />
    <vehicle id='S_N_71' type='standard_car' route='S_N' depart='342.0' departLane='random' departSpeed='10' />
    <vehicle id='W_E_72' type='standard_car' route='W_E' depart='353.0' departLane='random' departSpeed='10' />
    <vehicle id='E_S_73' type='standard_car' route='E_S' depart='355.0' departLane='random' departSpeed='10' />
    <vehicle id='E_W_74' type='standard_car' route='E_W' depart='355.0' departLane='random' departSpeed='10' />
    <vehicle id='S_N_75' type='standard_car' route='S_N' depart='357.0' departLane='random' departSpeed='10' />
    <vehicle id='E_W_76' type='standard_car' route='E_W' depart='361.0' departLane='random' departSpeed='10' />
    <vehicle id='N_S_77' type='standard_car' route='N_S' depart='366.0' departLane='random' departSpeed='10' />
    <vehicle id='E_W_78' type='standard_car' route='E_W' depart='366.0' departLane='random' departSpeed='10' />
    <vehicle id='E_S_79' type='standard_car' route='E_S' depart='367.0' departLane='random' departSpeed='10' />
    <vehicle id='N_E_80' type='standard_car' route='N_E' depart='367.0' departLane='random' departSpeed='10' />
    <vehicle id='S_N_81' type='standard_car' route='S_N' depart='370.0' departLane='random' departSpeed='10' />
    <vehicle id='W_N_82' type='standard_car' route='W_N' depart='374.0' departLane='random' departSpeed='10' />
    <vehicle id='E_S_83' type='standard_car' route='E_S' depart='374.0' departLane='random' departSpeed='10' />
    <vehicle id='S_W_84' type='standard_car' route='S_W' depart='374.0' departLane='random' departSpeed='10' />
    <vehicle id='W_N_85' type='standard_car' route='W_N' depart='375.0' departLane='random' departSpeed='10' />
    <vehicle id='S_W_86' type='standard_car' route='S_W' depart='377.0' departLane='random' departSpeed='10' />
    <vehicle id='N_E_87' type='standard_car' route='N_E' depart='378.0' departLane='random' departSpeed='10' />
    <vehicle id='E_W_88' type='standard_car' route='E_W' depart='379.0' departLane='random' departSpeed='10' />
    <vehicle id='E_N_89' type='standard_car' route='E_N' depart='379.0' departLane='random' departSpeed='10' />
    <vehicle id='N_S_90' type='standard_car' route='N_S' depart='380.0' departLane='random' departSpeed='10' />
    <vehicle id='E_W_91' type='standard_car' route='E_W' depart='381.0' departLane='random' departSpeed='10' />
    <vehicle id='N_S_92' type='standard_car' route='N_S' depart='385.0' departLane='random' departSpeed='10' />
    <vehicle id='W_N_93' type='standard_car' route='W_N' depart='389.0' departLane='random' departSpeed='10' />
    <vehicle id='S_E_94' type='standard_car' route='S_E' depart='389.0' departLane='random' departSpeed='10' />
    <vehicle id='N_S_95' type='standard_car' route='N_S' depart='397.0' departLane='random' departSpeed='10' />
    <vehicle id='N_E_96' type='standard_car' route='N_E' depart='398.0' departLane='random' departSpeed='10' />
    <vehicle id='E_S_97' type='standard_car' route='E_S' depart='398.0' departLane='random' departSpeed='10' />
    <vehicle id='S_N_98' type='standard_car' route='S_N' depart='401.0' departLane='random' departSpeed='10' />
    <vehicle id='W_E_99' type='standard_car' route='W_E' depart='404.0' departLane='random' departSpeed='10' />
    <vehicle id='S_N_100' type='standard_car' route='S_N' depart='407.0' departLane='random' departSpeed='10' />
    <vehicle id='E_S_101' type='standard_car' route='E_S' depart='409.0' departLane='random' departSpeed='10' />
    <vehicle id='S_W_102' type='standard_car' route='S_W' depart='410.0' departLane='random' departSpeed='10' />
    <vehicle id='E_S_103' type='standard_car' route='E_S' depart='414.0' departLane='random' departSpeed='10' />
    <vehicle id='S_W_104' type='standard_car' route='S_W' depart='415.0' departLane='random' departSpeed='10' />
    <vehicle id='E_W_105' type='standard_car' route='E_W' depart='416.0' departLane='random' departSpeed='10' />
    <vehicle id='W_E_106' type='standard_car' route='W_E' depart='419.0' departLane='random' departSpeed='10' />
    <vehicle id='N_S_107' type='standard_car' route='N_S' depart='424.0' departLane='random' departSpeed='10' />
    <vehicle id='E_W_108' type='standard_car' route='E_W' depart='424.0' departLane='random' departSpeed='10' />
    <vehicle id='S_W_109' type='standard_car' route='S_W' depart='426.0' departLane='random' departSpeed='10' />
    <vehicle id='E_W_110' type='standard_car' route='E_W' depart='426.0' departLane='random' departSpeed='10' />
    <vehicle id='W_E_111' type='standard_car' route='W_E' depart='429.0' departLane='random' departSpeed='10' />
    <vehicle id='W_E_112' type='standard_car' route='W_E' depart='429.0' departLane='random' departSpeed='10' />
    <vehicle id='S_W_113' type='standard_car' route='S_W' depart='432.0' departLane='random' departSpeed='10' />
    <vehicle id='S_N_114' type='standard_car' route='S_N' depart='432.0' departLane='random' departSpeed='10' />
    <vehicle id='N_S_115' type='standard_car' route='N_S' depart='435.0' departLane='random' departSpeed='10' />
    <vehicle id='E_W_116' type='standard_car' route='E_W' depart='435.0' departLane='random' departSpeed='10' />
    <vehicle id='E_S_117' type='standard_car' route='E_S' depart='439.0' departLane='random' departSpeed='10' />
    <vehicle id='S_N_118' type='standard_car' route='S_N' depart='441.0' departLane='random' departSpeed='10' />
    <vehicle id='S_N_119' type='standard_car' route='S_N' depart='441.0' departLane='random' departSpeed='10' />
    <vehicle id='E_W_120' type='standard_car' route='E_W' depart='441.0' departLane='random' departSpeed='10' />
    <vehicle id='S_N_121' type='standard_car' route='S_N' depart='445.0' departLane='random' departSpeed='10' />
    <vehicle id='E_W_122' type='standard_car' route='E_W' depart='446.0' departLane='random' departSpeed='10' />
    <vehicle id='S_W_123' type='standard_car' route='S_W' depart='447.0' departLane='random' departSpeed='10' />
    <vehicle id='N_S_124' type='standard_car' route='N_S' depart='449.0' departLane='random' departSpeed='10' />
    <vehicle id='W_E_125' type='standard_car' route='W_E' depart='450.0' departLane='random' departSpeed='10' />
    <vehicle id='S_N_126' type='standard_car' route='S_N' depart='453.0' departLane='random' departSpeed='10' />
    <vehicle id='E_W_127' type='standard_car' route='E_W' depart='453.0' departLane='random' departSpeed='10' />
    <vehicle id='E_W_128' type='standard_car' route='E_W' depart='454.0' departLane='random' departSpeed='10' />
    <vehicle id='E_S_129' type='standard_car' route='E_S' depart='454.0' departLane='random' departSpeed='10' />
    <vehicle id='N_S_130' type='standard_car' route='N_S' depart='454.0' departLane='random' departSpeed='10' />
    <vehicle id='W_E_131' type='standard_car' route='W_E' depart='455.0' departLane='random' departSpeed='10' />
    <vehicle id='N_E_132' type='standard_car' route='N_E' depart='457.0' departLane='random' departSpeed='10' />
    <vehicle id='N_S_133' type='standard_car' route='N_S' depart='459.0' departLane='random' departSpeed='10' />
    <vehicle id='W_N_134' type='standard_car' route='W_N' depart='459.0' departLane='random' departSpeed='10' />
    <vehicle id='N_S_135' type='standard_car' route='N_S' depart='459.0' departLane='random' departSpeed='10' />
    <vehicle id='S_N_136' type='standard_car' route='S_N' depart='459.0' departLane='random' departSpeed='10' />
    <vehicle id='E_W_137' type='standard_car' route='E_W' depart='462.0' departLane='random' departSpeed='10' />
    <vehicle id='N_E_138' type='standard_car' route='N_E' depart='462.0' departLane='random' departSpeed='10' />
    <vehicle id='W_E_139' type='standard_car' route='W_E' depart='465.0' departLane='random' departSpeed='10' />
    <vehicle id='E_S_140' type='standard_car' route='E_S' depart='469.0' departLane='random' departSpeed='10' />
    <vehicle id='E_W_141' type='standard_car' route='E_W' depart='471.0' departLane='random' departSpeed='10' />
    <vehicle id='N_S_142' type='standard_car' route='N_S' depart='471.0' departLane='random' departSpeed='10' />
    <vehicle id='S_W_143' type='standard_car' route='S_W' depart='472.0' departLane='random' departSpeed='10' />
    <vehicle id='W_N_144' type='standard_car' route='W_N' depart='472.0' departLane='random' departSpeed='10' />
    <vehicle id='S_N_145' type='standard_car' route='S_N' depart='473.0' departLane='random' departSpeed='10' />
    <vehicle id='N_E_146' type='standard_car' route='N_E' depart='475.0' departLane='random' departSpeed='10' />
    <vehicle id='S_N_147' type='standard_car' route='S_N' depart='482.0' departLane='random' departSpeed='10' />
    <vehicle id='N_S_148' type='standard_car' route='N_S' depart='486.0' departLane='random' departSpeed='10' />
    <vehicle id='W_E_149' type='standard_car' route='W_E' depart='488.0' departLane='random' departSpeed='10' />
    <vehicle id='S_N_150' type='standard_car' route='S_N' depart='488.0' departLane='random' departSpeed='10' />
    <vehicle id='N_W_151' type='standard_car' route='N_W' depart='490.0' departLane='random' departSpeed='10' />
    <vehicle id='N_E_152' type='standard_car' route='N_E' depart='490.0' departLane='random' departSpeed='10' />
    <vehicle id='W_E_153' type='standard_car' route='W_E' depart='492.0' departLane='random' departSpeed='10' />
    <vehicle id='E_W_154' type='standard_car' route='E_W' depart='494.0' departLane='random' departSpeed='10' />
    <vehicle id='W_E_155' type='standard_car' route='W_E' depart='495.0' departLane='random' departSpeed='10' />
    <vehicle id='S_N_156' type='standard_car' route='S_N' depart='500.0' departLane='random' departSpeed='10' />
    <vehicle id='S_N_157' type='standard_car' route='S_N' depart='502.0' departLane='random' departSpeed='10' />
    <vehicle id='W_S_158' type='standard_car' route='W_S' depart='503.0' departLane='random' departSpeed='10' />
    <vehicle id='N_S_159' type='standard_car' route='N_S' depart='504.0' departLane='random' departSpeed='10' />
    <vehicle id='W_E_160' type='standard_car' route='W_E' depart='506.0' departLane='random' departSpeed='10' />
    <vehicle id='E_S_161' type='standard_car' route='E_S' depart='510.0' departLane='random' departSpeed='10' />
    <vehicle id='S_W_162' type='standard_car' route='S_W' depart='510.0' departLane='random' departSpeed='10' />
    <vehicle id='S_W_163' type='standard_car' route='S_W' depart='511.0' departLane='random' departSpeed='10' />
    <vehicle id='E_W_164' type='standard_car' route='E_W' depart='514.0' departLane='random' departSpeed='10' />
    <vehicle id='S_N_165' type='standard_car' route='S_N' depart='515.0' departLane='random' departSpeed='10' />
    <vehicle id='N_S_166' type='standard_car' route='N_S' depart='520.0' departLane='random' departSpeed='10' />
    <vehicle id='N_S_167' type='standard_car' route='N_S' depart='520.0' departLane='random' departSpeed='10' />
    <vehicle id='E_S_168' type='standard_car' route='E_S' depart='522.0' departLane='random' departSpeed='10' />
    <vehicle id='E_W_169' type='standard_car' route='E_W' depart='529.0' departLane='random' departSpeed='10' />
    <vehicle id='S_N_170' type='standard_car' route='S_N' depart='529.0' departLane='random' departSpeed='10' />
    <vehicle id='N_S_171' type='standard_car' route='N_S' depart='531.0' departLane='random' departSpeed='10' />
    <vehicle id='W_E_172' type='standard_car' route='W_E' depart='533.0' departLane='random' departSpeed='10' />
    <vehicle id='W_E_173' type='standard_car' route='W_E' depart='534.0' departLane='random' departSpeed='10' />
    <vehicle id='E_N_174' type='standard_car' route='E_N' depart='535.0' departLane='random' departSpeed='10' />
    <vehicle id='N_E_175' type='standard_car' route='N_E' depart='538.0' departLane='random' departSpeed='10' />
    <vehicle id='S_N_176' type='standard_car' route='S_N' depart='542.0' departLane='random' departSpeed='10' />
    <vehicle id='E_W_177' type='standard_car' route='E_W' depart='543.0' departLane='random' departSpeed='10' />
    <vehicle id='S_W_178' type='standard_car' route='S_W' depart='547.0' departLane='random' departSpeed='10' />
    <vehicle id='E_W_179' type='standard_car' route='E_W' depart='550.0' departLane='random' departSpeed='10' />
    <vehicle id='S_W_180' type='standard_car' route='S_W' depart='552.0' departLane='random' departSpeed='10' />
    <vehicle id='E_W_181' type='standard_car' route='E_W' depart='554.0' departLane='random' departSpeed='10' />
    <vehicle id='S_W_182' type='standard_car' route='S_W' depart='555.0' departLane='random' departSpeed='10' />
    <vehicle id='N_E_183' type='standard_car' route='N_E' depart='562.0' departLane='random' departSpeed='10' />
    <vehicle id='E_W_184' type='standard_car' route='E_W' depart='565.0' departLane='random' departSpeed='10' />
    <vehicle id='W_S_185' type='standard_car' route='W_S' depart='566.0' departLane='random' departSpeed='10' />
    <vehicle id='S_N_186' type='standard_car' route='S_N' depart='567.0' departLane='random' departSpeed='10' />
    <vehicle id='N_S_187' type='standard_car' route='N_S' depart='567.0' departLane='random' departSpeed='10' />
    <vehicle id='E_W_188' type='standard_car' route='E_W' depart='568.0' departLane='random' departSpeed='10' />
    <vehicle id='S_W_189' type='standard_car' route='S_W' depart='569.0' departLane='random' departSpeed='10' />
    <vehicle id='N_E_190' type='standard_car' route='N_E' depart='572.0' departLane='random' departSpeed='10' />
    <vehicle id='W_N_191' type='standard_car' route='W_N' depart='573.0' departLane='random' departSpeed='10' />
    <vehicle id='N_S_192' type='standard_car' route='N_S' depart='575.0' departLane='random' departSpeed='10' />
    <vehicle id='N_E_193' type='standard_car' route='N_E' depart='577.0' departLane='random' departSpeed='10' />
    <vehicle id='N_E_194' type='standard_car' route='N_E' depart='580.0' departLane='random' departSpeed='10' />
    <vehicle id='E_W_195' type='standard_car' route='E_W' depart='582.0' departLane='random' departSpeed='10' />
    <vehicle id='W_E_196' type='standard_car' route='W_E' depart='583.0' departLane='random' departSpeed='10' />
    <vehicle id='N_W_197' type='standard_car' route='N_W' depart='586.0' departLane='random' departSpeed='10' />
    <vehicle id='N_S_198' type='standard_car' route='N_S' depart='586.0' departLane='random' departSpeed='10' />
    <vehicle id='N_E_199' type='standard_car' route='N_E' depart='588.0' departLane='random' departSpeed='10' />
    <vehicle id='S_N_200' type='standard_car' route='S_N' depart='588.0' departLane='random' departSpeed='10' />
    <vehicle id='S_N_201' type='standard_car' route='S_N' depart='598.0' departLane='random' departSpeed='10' />
    <vehicle id='E_S_202' type='standard_car' route='E_S' depart='599.0' departLane='random' departSpeed='10' />
    <vehicle id='N_S_203' type='standard_car' route='N_S' depart='599.0' departLane='random' departSpeed='10' />
    <vehicle id='N_S_204' type='standard_car' route='N_S' depart='600.0' departLane='random' departSpeed='10' />
    <vehicle id='W_E_205' type='standard_car' route='W_E' depart='600.0' departLane='random' departSpeed='10' />
    <vehicle id='E_W_206' type='standard_car' route='E_W' depart='600.0' departLane='random' departSpeed='10' />
    <vehicle id='S_N_207' type='standard_car' route='S_N' depart='601.0' departLane='random' departSpeed='10' />
    <vehicle id='W_E_208' type='standard_car' route='W_E' depart='601.0' departLane='random' departSpeed='10' />
    <vehicle id='N_S_209' type='standard_car' route='N_S' depart='602.0' departLane='random' departSpeed='10' />
    <vehicle id='N_E_210' type='standard_car' route='N_E' depart='602.0' departLane='random' departSpeed='10' />
    <vehicle id='N_W_211' type='standard_car' route='N_W' depart='606.0' departLane='random' departSpeed='10' />
    <vehicle id='W_E_212' type='standard_car' route='W_E' depart='607.0' departLane='random' departSpeed='10' />
    <vehicle id='N_E_213' type='standard_car' route='N_E' depart='607.0' departLane='random' departSpeed='10' />
    <vehicle id='E_S_214' type='standard_car' route='E_S' depart='614.0' departLane='random' departSpeed='10' />
    <vehicle id='E_W_215' type='standard_car' route='E_W' depart='619.0' departLane='random' departSpeed='10' />
    <vehicle id='E_S_216' type='standard_car' route='E_S' depart='620.0' departLane='random' departSpeed='10' />
    <vehicle id='W_E_217' type='standard_car' route='W_E' depart='623.0' departLane='random' departSpeed='10' />
    <vehicle id='N_S_218' type='standard_car' route='N_S' depart='623.0' departLane='random' departSpeed='10' />
    <vehicle id='E_W_219' type='standard_car' route='E_W' depart='625.0' departLane='random' departSpeed='10' />
    <vehicle id='E_W_220' type='standard_car' route='E_W' depart='628.0' departLane='random' departSpeed='10' />
    <vehicle id='S_W_221' type='standard_car' route='S_W' depart='628.0' departLane='random' departSpeed='10' />
    <vehicle id='W_N_222' type='standard_car' route='W_N' depart='629.0' departLane='random' departSpeed='10' />
    <vehicle id='N_W_223' type='standard_car' route='N_W' depart='632.0' departLane='random' departSpeed='10' />
    <vehicle id='S_N_224' type='standard_car' route='S_N' depart='636.0' departLane='random' departSpeed='10' />
    <vehicle id='W_E_225' type='standard_car' route='W_E' depart='637.0' departLane='random' departSpeed='10' />
    <vehicle id='N_E_226' type='standard_car' route='N_E' depart='639.0' departLane='random' departSpeed='10' />
    <vehicle id='N_S_227' type='standard_car' route='N_S' depart='639.0' departLane='random' departSpeed='10' />
    <vehicle id='W_N_228' type='standard_car' route='W_N' depart='643.0' departLane='random' departSpeed='10' />
    <vehicle id='N_S_229' type='standard_car' route='N_S' depart='643.0' departLane='random' departSpeed='10' />
    <vehicle id='E_W_230' type='standard_car' route='E_W' depart='645.0' departLane='random' departSpeed='10' />
    <vehicle id='W_E_231' type='standard_car' route='W_E' depart='647.0' departLane='random' departSpeed='10' />
    <vehicle id='E_W_232' type='standard_car' route='E_W' depart='648.0' departLane='random' departSpeed='10' />
    <vehicle id='W_N_233' type='standard_car' route='W_N' depart='651.0' departLane='random' departSpeed='10' />
    <vehicle id='E_W_234' type='standard_car' route='E_W' depart='654.0' departLane='random' departSpeed='10' />
    <vehicle id='S_W_235' type='standard_car' route='S_W' depart='660.0' departLane='random' departSpeed='10' />
    <vehicle id='E_S_236' type='standard_car' route='E_S' depart='661.0' departLane='random' departSpeed='10' />
    <vehicle id='N_S_237' type='standard_car' route='N_S' depart='663.0' departLane='random' departSpeed='10' />
    <vehicle id='N_S_238' type='standard_car' route='N_S' depart='664.0' departLane='random' departSpeed='10' />
    <vehicle id='N_E_239' type='standard_car' route='N_E' depart='664.0' departLane='random' departSpeed='10' />
    <vehicle id='E_W_240' type='standard_car' route='E_W' depart='668.0' departLane='random' departSpeed='10' />
    <vehicle id='N_S_241' type='standard_car' route='N_S' depart='669.0' departLane='random' departSpeed='10' />
    <vehicle id='W_E_242' type='standard_car' route='W_E' depart='670.0' departLane='random' departSpeed='10' />
    <vehicle id='N_E_243' type='standard_car' route='N_E' depart='672.0' departLane='random' departSpeed='10' />
    <vehicle id='E_N_244' type='standard_car' route='E_N' depart='672.0' departLane='random' departSpeed='10' />
    <vehicle id='W_E_245' type='standard_car' route='W_E' depart='673.0' departLane='random' departSpeed='10' />
    <vehicle id='W_E_246' type='standard_car' route='W_E' depart='674.0' departLane='random' departSpeed='10' />
    <vehicle id='E_W_247' type='standard_car' route='E_W' depart='680.0' departLane='random' departSpeed='10' />
    <vehicle id='S_E_248' type='standard_car' route='S_E' depart='681.0' departLane='random' departSpeed='10' />
    <vehicle id='W_N_249' type='standard_car' route='W_N' depart='683.0' departLane='random' departSpeed='10' />
    <vehicle id='S_N_250' type='standard_car' route='S_N' depart='684.0' departLane='random' departSpeed='10' />
    <vehicle id='S_N_251' type='standard_car' route='S_N' depart='684.0' departLane='random' departSpeed='10' />
    <vehicle id='N_W_252' type='standard_car' route='N_W' depart='684.0' departLane='random' departSpeed='10' />
    <vehicle id='S_N_253' type='standard_car' route='S_N' depart='684.0' departLane='random' departSpeed='10' />
    <vehicle id='E_N_254' type='standard_car' route='E_N' depart='685.0' departLane='random' departSpeed='10' />
    <vehicle id='W_S_255' type='standard_car' route='W_S' depart='687.0' departLane='random' departSpeed='10' />
    <vehicle id='E_S_256' type='standard_car' route='E_S' depart='688.0' departLane='random' departSpeed='10' />
    <vehicle id='N_S_257' type='standard_car' route='N_S' depart='689.0' departLane='random' departSpeed='10' />
    <vehicle id='E_W_258' type='standard_car' route='E_W' depart='689.0' departLane='random' departSpeed='10' />
    <vehicle id='S_W_259' type='standard_car' route='S_W' depart='690.0' departLane='random' departSpeed='10' />