<routes>
        <vType id="standard_car" length="3.0" maxSpeed="15" minGap="1.0" accel="1.0" decel="4.0" />
        <route id="N_S" edges="gneE1 -gneE3"/>
        <route id="N_E" edges="gneE1 -gneE0"/>
        <route id="N_W" edges="gneE1 -gneE2"/>
        <route id="S_W" edges="gneE3 -gneE2"/>
        <route id="S_E" edges="gneE3 -gneE0"/>
        <route id="S_N" edges="gneE3 -gneE1"/>
        
        <route id="W_E" edges="gneE2 -gneE0"/>
        <route id="W_N" edges="gneE2 -gneE1"/>
        <route id="W_S" edges="gneE2 -gneE3"/>
        <route id="E_N" edges="gneE0 -gneE1"/>
        <route id="E_S" edges="gneE0 -gneE3"/>
        <route id="E_W" edges="gneE0 -gneE2"/>
        
    <vehicle id='W_E_0' type='standard_car' route='W_E' depart='42.0' departLane='random' departSpeed='10' />
    <vehicle id='S_E_1' type='standard_car' route='S_E' depart='58.0' departLane='random' departSpeed='10' />
    <vehicle id='E_W_2' type='standard_car' route='E_W' depart='130.0' departLane='random' departSpeed='10' />
    <vehicle id='E_W_3' type='standard_car' route='E_W' depart='150.0' departLane='random' departSpeed='10' />
    <vehicle id='E_S_4' type='standard_car' route='E_S' depart='157.0' departLane='random' departSpeed='10' />
    <vehicle id='N_E_5' type='standard_car' route='N_E' depart='162.0' departLane='random' departSpeed='10' />
    <vehicle id='S_N_6' type='standard_car' route='S_N' depart='169.0' departLane='random' departSpeed='10' />
    <vehicle id='S_N_7' type='standard_car' route='S_N' depart='174.0' departLane='random' departSpeed='10' />
    <vehicle id='E_S_8' type='standard_car' route='E_S' depart='214.0' departLane='random' departSpeed='10' />
    <vehicle id='W_N_9' type='standard_car' route='W_N' depart='217.0' departLane='random' departSpeed='10' />
    <vehicle id='W_S_10' type='standard_car' route='W_S' depart='224.0' departLane='random' departSpeed='10' />
    <vehicle id='E_S_11' type='standard_car' route='E_S' depart='225.0' departLane='random' departSpeed='10' />
    <vehicle id='N_S_12' type='standard_car' route='N_S' depart='230.0' departLane='random' departSpeed='10' />
    <vehicle id='N_S_13' type='standard_car' route='N_S' depart='251.0' departLane='random' departSpeed='10' />
    <vehicle id='E_W_14' type='standard_car' route='E_W' depart='260.0' departLane='random' departSpeed='10' />
    <vehicle id='E_W_15' type='standard_car' route='E_W' depart='260.0' departLane='random' departSpeed='10' />
    <vehicle id='W_N_16' type='standard_car' route='W_N' depart='291.0' departLane='random' departSpeed='10' />
    <vehicle id='S_N_17' type='standard_car' route='S_N' depart='292.0' departLane='random' departSpeed='10' />
    <vehicle id='N_S_18' type='standard_car' route='N_S' depart='296.0' departLane='random' departSpeed='10' />
    <vehicle id='E_S_19' type='standard_car' route='E_S' depart='300.0' departLane='random' departSpeed='10' />
    <vehicle id='W_S_20' type='standard_car' route='W_S' depart='319.0' departLane='random' departSpeed='10' />
    <vehicle id='S_N_21' type='standard_car' route='S_N' depart='320.0' departLane='random' departSpeed='10' />
    <vehicle id='S_N_22' type='standard_car' route='S_N' depart='322.0' departLane='random' departSpeed='10' />
    <vehicle id='W_E_23' type='standard_car' route='W_E' depart='324.0' departLane='random' departSpeed='10' />
    <vehicle id='W_E_24' type='standard_car' route='W_E' depart='330.0' departLane='random' departSpeed='10' />
    <vehicle id='E_W_25' type='standard_car' route='E_W' depart='331.0' departLane='random' departSpeed='10' />
    <vehicle id='N_W_26' type='standard_car' route='N_W' depart='343.0' departLane='random' departSpeed='10' />
    <vehicle id='S_N_27' type='standard_car' route='S_N' depart='346.0' departLane='random' departSpeed='10' />
    <vehicle id='S_W_28' type='standard_car' route='S_W' depart='349.0' departLane='random' departSpeed='10' />
    <vehicle id='S_N_29' type='standard_car' route='S_N' depart='351.0' departLane='random' departSpeed='10' />
    <vehicle id='N_S_30' type='standard_car' route='N_S' depart='354.0' departLane='random' departSpeed='10' />
    <vehicle id='N_E_31' type='standard_car' route='N_E' depart='362.0' departLane='random' departSpeed='10' />
    <vehicle id='W_E_32' type='standard_car' route='W_E' depart='363.0' departLane='random' departSpeed='10' />
    <vehicle id='E_W_33' type='standard_car' route='E_W' depart='364.0' departLane='random' departSpeed='10' />
    <vehicle id='W_E_34' type='standard_car' route='W_E' depart='370.0' departLane='random' departSpeed='10' />
    <vehicle id='E_N_35' type='standard_car' route='E_N' depart='371.0' departLane='random' departSpeed='10' />
    <vehicle id='W_N_36' type='standard_car' route='W_N' depart='372.0' departLane='random' departSpeed='10' />
    <vehicle id='E_S_37' type='standard_car' route='E_S' depart='373.0' departLane='random' departSpeed='10' />
    <vehicle id='N_E_38' type='standard_car' route='N_E' depart='379.0' departLane='random' departSpeed='10' />
    <vehicle id='W_S_39' type='standard_car' route='W_S' depart='380.0' departLane='random' departSpeed='10' />
    <vehicle id='E_W_40' type='standard_car' route='E_W' depart='389.0' departLane='random' departSpeed='10' />
    <vehicle id='S_N_41' type='standard_car' route='S_N' depart='391.0' departLane='random' departSpeed='10' />
    <vehicle id='S_W_42' type='standard_car' route='S_W' depart='393.0' departLane='random' departSpeed='10' />
    <vehicle id='E_W_43' type='standard_car' route='E_W' depart='393.0' departLane='random' departSpeed='10' />
    <vehicle id='W_E_44' type='standard_car' route='W_E' depart='394.0' departLane='random' departSpeed='10' />
    <vehicle id='N_S_45' type='standard_car' route='N_S' depart='398.0' departLane='random' departSpeed='10' />
    <vehicle id='E_N_46' type='standard_car' route='E_N' depart='398.0' departLane='random' departSpeed='10' />
    <vehicle id='S_N_47' type='standard_car' route='S_N' depart='413.0' departLane='random' departSpeed='10' />
    <vehicle id='E_W_48' type='standard_car' route='E_W' depart='418.0' departLane='random' departSpeed='10' />
    <vehicle id='S_N_49' type='standard_car' route='S_N' depart='420.0' departLane='random' departSpeed='10' />
    <vehicle id='E_S_50' type='standard_car' route='E_S' depart='421.0' departLane='random' departSpeed='10' />
    <vehicle id='N_E_51' type='standard_car' route='N_E' depart='431.0' departLane='random' departSpeed='10' />
    <vehicle id='E_W_52' type='standard_car' route='E_W' depart='433.0' departLane='random' departSpeed='10' />
    <vehicle id='W_N_53' type='standard_car' route='W_N' depart='439.0' departLane='random' departSpeed='10' />
    <vehicle id='W_E_54' type='standard_car' route='W_E' depart='446.0' departLane='random' departSpeed='10' />
    <vehicle id='N_S_55' type='standard_car' route='N_S' depart='452.0' departLane='random' departSpeed='10' />
    <vehicle id='E_W_56' type='standard_car' route='E_W' depart='454.0' departLane='random' departSpeed='10' />
    <vehicle id='E_W_57' type='standard_car' route='E_W' depart='461.0' departLane='random' departSpeed='10' />
    <vehicle id='W_E_58' type='standard_car' route='W_E' depart='469.0' departLane='random' departSpeed='10' />
    <vehicle id='N_E_59' type='standard_car' route='N_E' depart='478.0' departLane='random' departSpeed='10' />
    <vehicle id='S_W_60' type='standard_car' route='S_W' depart='480.0' departLane='random' departSpeed='10' />
    <vehicle id='S_N_61' type='standard_car' route='S_N' depart='487.0' departLane='random' departSpeed='10' />
    <vehicle id='S_N_62' type='standard_car' route='S_N' depart='490.0' departLane='random' departSpeed='10' />
    <vehicle id='W_E_63' type='standard_car' route='W_E' depart='497.0' departLane='random' departSpeed='10' />
    <vehicle id='W_N_64' type='standard_car' route='W_N' depart='501.0' departLane='random' departSpeed='10' />
    <vehicle id='E_W_65' type='standard_car' route='E_W' depart='505.0' departLane='random' departSpeed='10' />
    <vehicle id='E_S_66' type='standard_car' route='E_S' depart='510.0' departLane='random' departSpeed='10' />
    <vehicle id='N_S_67' type='standard_car' route='N_S' depart='512.0' departLane='random' departSpeed='10' />
    <vehicle id='W_E_68' type='standard_car' route='W_E' depart='512.0' departLane='random' departSpeed='10' />
    <vehicle id='W_N_69' type='standard_car' route='W_N' depart='516.0' departLane='random' departSpeed='10' />
    <vehicle id='W_E_70' type='standard_car' route='W_E' depart='519.0' departLane='random' departSpeed='10' />
    <vehicle id='W_N_71' type='standard_car' route='W_N' depart='522.0' departLane='random' departSpeed='10' />
    <vehicle id='W_E_72' type='standard_car' route='W_E' depart='525.0' departLane='random' departSpeed='10' />
    <vehicle id='N_S_73' type='standard_car' route='N_S' depart='528.0' departLane='random' departSpeed='10' />
    <vehicle id='W_N_74' type='standard_car' route='W_N' depart='551.0' departLane='random' departSpeed='10' />
    <vehicle id='E_W_75' type='standard_car' route='E_W' depart='554.0' departLane='random' departSpeed='10' />
    <vehicle id='S_W_76' type='standard_car' route='S_W' depart='558.0' departLane='random' departSpeed='10' />
    <vehicle id='W_E_77' type='standard_car' route='W_E' depart='563.0' departLane='random' departSpeed='10' />
    <vehicle id='S_N_78' type='standard_car' route='S_N' depart='572.0' departLane='random' departSpeed='10' />
    <vehicle id='W_E_79' type='standard_car' route='W_E' depart='586.0' departLane='random' departSpeed='10' />
    <vehicle id='E_W_80' type='standard_car' route='E_W' depart='587.0' departLane='random' departSpeed='10' />
    <vehicle id='N_E_81' type='standard_car' route='N_E' depart='591.0' departLane='random' departSpeed='10' />
    <vehicle id='W_E_82' type='standard_car' route='W_E' depart='591.0' departLane='random' departSpeed='10' />
    <vehicle id='N_S_83' type='standard_car' route='N_S' depart='597.0' departLane='random' departSpeed='10' />
    <vehicle id='S_N_84' type='standard_car' route='S_N' depart='597.0' departLane='random' departSpeed='10' />
    <vehicle id='N_E_85' type='standard_car' route='N_E' depart='597.0' departLane='random' departSpeed='10' />
    <vehicle id='E_S_86' type='standard_car' route='E_S' depart='598.0' departLane='random' departSpeed='10' />
    <vehicle id='S_N_87' type='standard_car' route='S_N' depart='600.0' departLane='random' departSpeed='10' />
    <vehicle id='E_W_88' type='standard_car' route='E_W' depart='601.0' departLane='random' departSpeed='10' />
    <vehicle id='E_N_89' type='standard_car' route='E_N' depart='603.0' departLane='random' departSpeed='10' />
    <vehicle id='S_N_90' type='standard_car' route='S_N' depart='608.0' departLane='random' departSpeed='10' />
    <vehicle id='E_S_91' type='standard_car' route='E_S' depart='609.0' departLane='random' departSpeed='10' />
    <vehicle id='E_N_92' type='standard_car' route='E_N' depart='613.0' departLane='random' departSpeed='10' />
    <vehicle id='W_N_93' type='standard_car' route='W_N' depart='615.0' departLane='random' departSpeed='10' />
    <vehicle id='S_N_94' type='standard_car' route='S_N' depart='616.0' departLane='random' departSpeed='10' />
    <vehicle id='S_W_95' type='standard_car' route='S_W' depart='616.0' departLane='random' departSpeed='10' />
    <vehicle id='W_E_96' type='standard_car' route='W_E' depart='620.0' departLane='random' departSpeed='10' />
    <vehicle id='N_S_97' type='standard_car' route='N_S' depart='628.0' departLane='random' departSpeed='10' />
    <vehicle id='N_S_98' type='standard_car' route='N_S' depart='633.0' departLane='random' departSpeed='10' />
    <vehicle id='S_N_99' type='standard_car' route='S_N' depart='634.0' departLane='random' departSpeed='10' />
    <vehicle id='W_E_100' type='standard_car' route='W_E' depart='635.0' departLane='random' departSpeed='10' />
    <vehicle id='W_E_101' type='standard_car' route='W_E' depart='637.0' departLane='random' departSpeed='10' />
    <vehicle id='S_W_102' type='standard_car' route='S_W' depart='641.0' departLane='random' departSpeed='10' />
    <vehicle id='N_E_103' type='standard_car' route='N_E' depart='664.0' departLane='random' departSpeed='10' />
    <vehicle id='W_E_104' type='standard_car' route='W_E' depart='667.0' departLane='random' departSpeed='10' />
    <vehicle id='N_W_105' type='standard_car' route='N_W' depart='678.0' departLane='random' departSpeed='10' />
    <vehicle id='E_W_106' type='standard_car' route='E_W' depart='683.0' departLane='random' departSpeed='10' />
    <vehicle id='W_E_107' type='standard_car' route='W_E' depart='686.0' departLane='random' departSpeed='10' />
    <vehicle id='N_W_108' type='standard_car' route='N_W' depart='690.0' departLane='random' departSpeed='10' />
    <vehicle id='E_W_109' type='standard_car' route='E_W' depart='696.0' departLane='random' departSpeed='10' />
    <vehicle id='S_W_110' type='standard_car' route='S_W' depart='697.0' departLane='random' departSpeed='10' />
    <vehicle id='W_N_111' type='standard_car' route='W_N' depart='702.0' departLane='random' departSpeed='10' />
    <vehicle id='W_E_112' type='standard_car' route='W_E' depart='707.0' departLane='random' departSpeed='10' />
    <vehicle id='E_S_113' type='standard_car' route='E_S' depart='708.0' departLane='random' departSpeed='10' />
    <vehicle id='N_E_114' type='standard_car' route='N_E' depart='709.0' departLane='random' departSpeed='10' />
    <vehicle id='N_W_115' type='standard_car' route='N_W' depart='717.0' departLane='random' departSpeed='10' />
    <vehicle id='W_E_116' type='standard_car' route='W_E' depart='719.0' departLane='random' departSpeed='10' />
    <vehicle id='E_S_117' type='standard_car' route='E_S' depart='720.0' departLane='random' departSpeed='10' />
    <vehicle id='E_W_118' type='standard_car' route='E_W' depart='726.0' departLane='random' departSpeed='10' />
    <vehicle id='N_E_119' type='standard_car' route='N_E' depart='728.0' departLane='random' departSpeed='10' />
    <vehicle id='E_W_120' type='standard_car' route='E_W' depart='730.0' departLane='random' departSpeed='10' />
    <vehicle id='N_W_121' type='standard_car' route='N_W' depart='734.0' departLane='random' departSpeed='10' />
    <vehicle id='E_S_122' type='standard_car' route='E_S' depart='735.0' departLane='random' departSpeed='10' />
    <vehicle id='W_E_123' type='standard_car' route='W_E' depart='741.0' departLane='random' departSpeed='10' />
    <vehicle id='N_E_124' type='standard_car' route='N_E' depart='744.0' departLane='random' departSpeed='10' />
    <vehicle id='W_E_125' type='standard_car' route='W_E' depart='751.0' departLane='random' departSpeed='10' />
    <vehicle id='N_S_126' type='standard_car' route='N_S' depart='752.0' departLane='random' departSpeed='10' />
    <vehicle id='S_N_127' type='standard_car' route='S_N' depart='760.0' departLane='random' departSpeed='10' />
    <vehicle id='W_E_128' type='standard_car' route='W_E' depart='770.0' departLane='random' departSpeed='10' />
    <vehicle id='W_E_129' type='standard_car' route='W_E' depart='772.0' departLane='random' departSpeed='10' />
    <vehicle id='E_W_130' type='standard_car' route='E_W' depart='772.0' departLane='random' departSpeed='10' />
    <vehicle id='N_W_131' type='standard_car' route='N_W' depart='775.0' departLane='random' departSpeed='10' />
    <vehicle id='E_S_132' type='standard_car' route='E_S' depart='779.0' departLane='random' departSpeed='10' />
    <vehicle id='E_S_133' type='standard_car' route='E_S' depart='785.0' departLane='random' departSpeed='10' />
    <vehicle id='W_E_134' type='standard_car' route='W_E' depart='789.0' departLane='random' departSpeed='10' />
    <vehicle id='W_E_135' type='standard_car' route='W_E' depart='790.0' departLane='random' departSpeed='10' />
    <vehicle id='N_S_136' type='standard_car' route='N_S' depart='795.0' departLane='random' departSpeed='10' />
    <vehicle id='E_W_137' type='standard_car' route='E_W' depart='796.0' departLane='random' departSpeed='10' />
    <vehicle id='E_N_138' type='standard_car' route='E_N' depart='800.0' departLane='random' departSpeed='10' />
    <vehicle id='S_N_139' type='standard_car' route='S_N' depart='801.0' departLane='random' departSpeed='10' />
    <vehicle id='S_W_140' type='standard_car' route='S_W' depart='808.0' departLane='random' departSpeed='10' />
    <vehicle id='S_N_141' type='standard_car' route='S_N' depart='813.0' departLane='random' departSpeed='10' />
    <vehicle id='N_E_142' type='standard_car' route='N_E' depart='814.0' departLane='random' departSpeed='10' />
    <vehicle id='S_N_143' type='standard_car' route='S_N' depart='817.0' departLane='random' departSpeed='10' />
    <vehicle id='E_S_144' type='standard_car' route='E_S' depart='823.0' departLane='random' departSpeed='10' />
    <vehicle id='S_W_145' type='standard_car' route='S_W' depart='824.0' departLane='random' departSpeed='10' />
    <vehicle id='S_W_146' type='standard_car' route='S_W' depart='826.0' departLane='random' departSpeed='10' />
    <vehicle id='N_S_147' type='standard_car' route='N_S' depart='827.0' departLane='random' departSpeed='10' />
    <vehicle id='S_N_148' type='standard_car' route='S_N' depart='831.0' departLane='random' departSpeed='10' />
    <vehicle id='E_S_149' type='standard_car' route='E_S' depart='835.0' departLane='random' departSpeed='10' />
    <vehicle id='N_S_150' type='standard_car' route='N_S' depart='841.0' departLane='random' departSpeed='10' />
    <vehicle id='S_W_151' type='standard_car' route='S_W' depart='843.0' departLane='random' departSpeed='10' />
    <vehicle id='E_S_152' type='standard_car' route='E_S' depart='844.0' departLane='random' departSpeed='10' />
    <vehicle id='N_S_153' type='standard_car' route='N_S' depart='850.0' departLane='random' departSpeed='10' />
    <vehicle id='W_S_154' type='standard_car' route='W_S' depart='852.0' departLane='random' departSpeed='10' />
    <vehicle id='N_E_155' type='standard_car' route='N_E' depart='853.0' departLane='random' departSpeed='10' />
    <vehicle id='N_S_156' type='standard_car' route='N_S' depart='857.0' departLane='random' departSpeed='10' />
    <vehicle id='W_E_157' type='standard_car' route='W_E' depart='858.0' departLane='random' departSpeed='10' />
    <vehicle id='N_E_158' type='standard_car' route='N_E' depart='859.0' departLane='random' departSpeed='10' />
    <vehicle id='E_W_159' type='standard_car' route='E_W' depart='861.0' departLane='random' departSpeed='10' />
    <vehicle id='W_E_160' type='standard_car' route='W_E' depart='863.0' departLane='random' departSpeed='10' />
    <vehicle id='E_W_161' type='standard_car' route='E_W' depart='866.0' departLane='random' departSpeed='10' />
    <vehicle id='W_N_162' type='standard_car' route='W_N' depart='877.0' departLane='random' departSpeed='10' />
    <vehicle id='W_N_163' type='standard_car' route='W_N' depart='882.0' departLane='random' departSpeed='10' />
    <vehicle id='W_E_164' type='standard_car' route='W_E' depart='883.0' departLane='random' departSpeed='10' />
    <vehicle id='E_W_165' type='standard_car' route='E_W' depart='885.0' departLane='random' departSpeed='10' />
    <vehicle id='N_E_166' type='standard_car' route='N_E' depart='888.0' departLane='random' departSpeed='10' />
    <vehicle id='W_N_167' type='standard_car' route='W_N' depart='895.0' departLane='random' departSpeed='10' />
    <vehicle id='E_W_168' type='standard_car' route='E_W' depart='902.0' departLane='random' departSpeed='10' />
    <vehicle id='W_E_169' type='standard_car' route='W_E' depart='904.0' departLane='random' departSpeed='10' />
    <vehicle id='E_S_170' type='standard_car' route='E_S' depart='906.0' departLane='random' departSpeed='10' />
    <vehicle id='S_N_171' type='standard_car' route='S_N' depart='908.0' departLane='random' departSpeed='10' />
    <vehicle id='N_S_172' type='standard_car' route='N_S' depart='908.0' departLane='random' departSpeed='10' />
    <vehicle id='S_N_173' type='standard_car' route='S_N' depart='911.0' departLane='random' departSpeed='10' />
    <vehicle id='W_E_174' type='standard_car' route='W_E' depart='911.0' departLane='random' departSpeed='10' />
    <vehicle id='E_W_175' type='standard_car' route='E_W' depart='913.0' departLane='random' departSpeed='10' />
    <vehicle id='S_W_176' type='standard_car' route='S_W' depart='917.0' departLane='random' departSpeed='10' />
    <vehicle id='S_N_177' type='standard_car' route='S_N' depart='920.0' departLane='random' departSpeed='10' />
    <vehicle id='S_N_178' type='standard_car' route='S_N' depart='920.0' departLane='random' departSpeed='10' />
    <vehicle id='E_W_179' type='standard_car' route='E_W' depart='933.0' departLane='random' departSpeed='10' />
    <vehicle id='S_N_180' type='standard_car' route='S_N' depart='941.0' departLane='random' departSpeed='10' />
    <vehicle id='N_E_181' type='standard_car' route='N_E' depart='952.0' departLane='random' departSpeed='10' />
    <vehicle id='S_E_182' type='standard_car' route='S_E' depart='954.0' departLane='random' departSpeed='10' />
    <vehicle id='N_S_183' type='standard_car' route='N_S' depart='956.0' departLane='random' departSpeed='10' />
    <vehicle id='N_S_184' type='standard_car' route='N_S' depart='957.0' departLane='random' departSpeed='10' />
    <vehicle id='E_W_185' type='standard_car' route='E_W' depart='967.0' departLane='random' departSpeed='10' />
    <vehicle id='N_E_186' type='standard_car' route='N_E' depart='969.0' departLane='random' departSpeed='10' />
    <vehicle id='E_W_187' type='standard_car' route='E_W' depart='973.0' departLane='random' departSpeed='10' />
    <vehicle id='S_N_188' type='standard_car' route='S_N' depart='974.0' departLane='random' departSpeed='10' />
    <vehicle id='W_E_189' type='standard_car' route='W_E' depart='977.0' departLane='random' departSpeed='10' />
    <vehicle id='S_W_190' type='standard_car' route='S_W' depart='979.0' departLane='random' departSpeed='10' />
    <vehicle id='N_S_191' type='standard_car' route='N_S' depart='980.0' departLane='random' departSpeed='10' />
    <vehicle id='W_S_192' type='standard_car' route='W_S' depart='981.0' departLane='random' departSpeed='10' />
    <vehicle id='S_N_193' type='standard_car' route='S_N' depart='983.0' departLane='random' departSpeed='10' />
    <vehicle id='W_S_194' type='standard_car' route='W_S' depart='985.0' departLane='random' departSpeed='10' />
    <vehicle id='E_S_195' type='standard_car' route='E_S' depart='985.0' departLane='random' departSpeed='10' />
    <vehicle id='N_E_196' type='standard_car' route='N_E' depart='985.0' departLane='random' departSpeed='10' />
    <vehicle id='S_N_197' type='standard_car' route='S_N' depart='988.0' departLane='random' departSpeed='10' />
    <vehicle id='N_E_198' type='standard_car' route='N_E' depart='990.0' departLane='random' departSpeed='10' />
    <vehicle id='N_S_199' type='standard_car' route='N_S' depart='992.0' departLane='random' departSpeed='10' />
    <vehicle id='E_S_200' type='standard_car' route='E_S' depart='993.0' departLane='random' departSpeed='10' />
    <vehicle id='N_S_201' type='standard_car' route='N_S' depart='994.0' departLane='random' departSpeed='10' />
    <vehicle id='E_W_202' type='standard_car' route='E_W' depart='1009.0' departLane='random' departSpeed='10' />
    <vehicle id='S_E_203' type='standard_car' route='S_E' depart='1010.0' departLane='random' departSpeed='10' />
    <vehicle id='E_W_204' type='standard_car' route='E_W' depart='1011.0' departLane='random' departSpeed='10' />
    <vehicle id='S_W_205' type='standard_car' route='S_W' depart='1017.0' departLane='random' departSpeed='10' />
    <vehicle id='S_E_206' type='standard_car' route='S_E' depart='1020.0' departLane='random' departSpeed='10' />
    <vehicle id='S_W_207' type='standard_car' route='S_W' depart='1020.0' departLane='random' departSpeed='10' />
    <vehicle id='W_E_208' type='standard_car' route='W_E' depart='1026.0' departLane='random' departSpeed='10' />
    <vehicle id='S_N_209' type='standard_car' route='S_N' depart='1027.0' departLane='random' departSpeed='10' />
    <vehicle id='S_N_210' type='standard_car' route='S_N' depart='1028.0' departLane='random' departSpeed='10' />
    <vehicle id='N_S_211' type='standard_car' route='N_S' depart='1029.0' departLane='random' departSpeed='10' />
    <vehicle id='W_N_212' type='standard_car' route='W_N' depart='1030.0' departLane='random' departSpeed='10' />
    <vehicle id='E_W_213' type='standard_car' route='E_W' depart='1031.0' departLane='random' departSpeed='10' />
    <vehicle id='S_N_214' type='standard_car' route='S_N' depart='1035.0' departLane='random' departSpeed='10' />
    <vehicle id='W_E_215' type='standard_car' route='W_E' depart='1039.0' departLane='random' departSpeed='10' />
    <vehicle id='E_W_216' type='standard_car' route='E_W' depart='1040.0' departLane='random' departSpeed='10' />
    <vehicle id='S_W_217' type='standard_car' route='S_W' depart='1040.0' departLane='random' departSpeed='10' />
    <vehicle id='W_N_218' type='standard_car' route='W_N' depart='1045.0' departLane='random' departSpeed='10' />
    <vehicle id='N_S_219' type='standard_car' route='N_S' depart='1046.0' departLane='random' departSpeed='10' />
    <vehicle id='N_E_220' type='standard_car' route='N_E' depart='1053.0' departLane='random' departSpeed='10' />
    <vehicle id='E_S_221' type='standard_car' route='E_S' depart='1055.0' departLane='random' departSpeed='10' />
    <vehicle id='W_E_222' type='standard_car' route='W_E' depart='1058.0' departLane='random' departSpeed='10' />
    <vehicle id='E_S_223' type='standard_car' route='E_S' depart='1062.0' departLane='random' departSpeed='10' />
    <vehicle id='N_E_224' type='standard_car' route='N_E' depart='1066.0' departLane='random' departSpeed='10' />
    <vehicle id='W_N_225' type='standard_car' route='W_N' depart='1070.0' departLane='random' departSpeed='10' />
    <vehicle id='E_N_226' type='standard_car' route='E_N' depart='1072.0' departLane='random' departSpeed='10' />
    <vehicle id='S_N_227' type='standard_car' route='S_N' depart='1075.0' departLane='random' departSpeed='10' />
    <vehicle id='N_S_228' type='standard_car' route='N_S' depart='1079.0' departLane='random' departSpeed='10' />
    <vehicle id='W_E_229' type='standard_car' route='W_E' depart='1080.0' departLane='random' departSpeed='10' />
    <vehicle id='W_E_230' type='standard_car' route='W_E' depart='1082.0' departLane='random' departSpeed='10' />
    <vehicle id='E_W_231' type='standard_car' route='E_W' depart='1091.0' departLane='random' departSpeed='10' />
    <vehicle id='W_N_232' type='standard_car' route='W_N' depart='1096.0' departLane='random' departSpeed='10' />
    <vehicle id='E_W_233' type='standard_car' route='E_W' depart='1097.0' departLane='random' departSpeed='10' />
    <vehicle id='N_S_234' type='standard_car' route='N_S' depart='1098.0' departLane='random' departSpeed='10' />
    <vehicle id='E_W_235' type='standard_car' route='E_W' depart='1098.0' departLane='random' departSpeed='10' />
    <vehicle id='E_S_236' type='standard_car' route='E_S' depart='1098.0' departLane='random' departSpeed='10' />
    <vehicle id='E_W_237' type='standard_car' route='E_W' depart='1108.0' departLane='random' departSpeed='10' />
    <vehicle id='E_S_238' type='standard_car' route='E_S' depart='1112.0' departLane='random' departSpeed='10' />
    <vehicle id='E_W_239' type='standard_car' route='E_W' depart='1113.0' departLane='random' departSpeed='10' />
    <vehicle id='W_E_240' type='standard_car' route='W_E' depart='1117.0' departLane='random' departSpeed='10' />
    <vehicle id='E_W_241' type='standard_car' route='E_W' depart='1118.0' departLane='random' departSpeed='10' />
    <vehicle id='N_E_242' type='standard_car' route='N_E' depart='1120.0' departLane='random' departSpeed='10' />
    <vehicle id='E_W_243' type='standard_car' route='E_W' depart='1124.0' departLane='random' departSpeed='10' />
    <vehicle id='N_E_244' type='standard_car' route='N_E' depart='1125.0' departLane='random' departSpeed='10' />
    <vehicle id='S_N_245' type='standard_car' route='S_N' depart='1125.0' departLane='random' departSpeed='10' />
    <vehicle id='S_E_246' type='standard_car' route='S_E' depart='1127.0' departLane='random' departSpeed='10' />
    <vehicle id='N_S_247' type='standard_car' route='N_S' depart='1131.0' departLane='random' departSpeed='10' />
    <vehicle id='E_W_248' type='standard_car' route='E_W' depart='1133.0' departLane='random' departSpeed='10' />
    <vehicle id='N_S_249' type='standard_car' route='N_S' depart='1135.0' departLane='random' departSpeed='10' />
    <vehicle id='W_N_250' type='standard_car' route='W_N' depart='1139.0' departLane='random' departSpeed='10' />
    <vehicle id='S_N_251' type='standard_car' route='S_N' depart='1140.0' departLane='random' departSpeed='10' />
    <vehicle id='S_N_252' type='standard_car' route='S_N' depart='1141.0' departLane='random' departSpeed='10' />
    <vehicle id='S_N_253' type='standard_car' route='S_N' depart='1145.0' departLane='random' departSpeed='10' />
    <vehicle id='N_S_254' type='standard_car' route='N_S' depart='1145.0' departLane='random' departSpeed='10' />
    <vehicle id='S_N_255' type='standard_car' route='S_N' depart='1147.0' departLane='random' departSpeed='10' />
    <vehicle id='N_S_256' type='standard_car' route='N_S' depart='1148.0' departLane='random' departSpeed='10' />
    <vehicle id='W_S_257' type='standard_car' route='W_S' depart='1151.0' departLane='random' departSpeed='10' />
    <vehicle id='E_W_258' type='standard_car' route='E_W' depart='1153.0' departLane='random' departSpeed='10' />