<routes>
        <vType id="standard_car" length="3.0" maxSpeed="15" minGap="1.0" accel="1.0" decel="4.0" />
        <route id="N_S" edges="gneE5 gneE1 -gneE3 -gneE7"/>
        <route id="N_E" edges="gneE5 gneE1 -gneE0 -gneE4"/>
        <route id="N_W" edges="gneE5 gneE1 -gneE2 -gneE6"/>
        <route id="S_W" edges="gneE7 gneE3 -gneE2 -gneE6"/>
        <route id="S_E" edges="gneE7 gneE3 -gneE0 -gneE4"/>
        <route id="S_N" edges="gneE7 gneE3 -gneE1 -gneE5"/>
        
        <route id="W_E" edges="gneE6 gneE2 -gneE0 -gneE4"/>
        <route id="W_N" edges="gneE6 gneE2 -gneE1 -gneE5"/>
        <route id="W_S" edges="gneE6 gneE2 -gneE3 -gneE7"/>
        <route id="E_N" edges="gneE4 gneE0 -gneE1 -gneE5"/>
        <route id="E_S" edges="gneE4 gneE0 -gneE3 -gneE7"/>
        <route id="E_W" edges="gneE4 gneE0 -gneE2 -gneE6"/>
        
    <vehicle id='E_S_0' type='standard_car' route='E_S' depart='35.0' departLane='random' departSpeed='10' />
    <vehicle id='N_E_1' type='standard_car' route='N_E' depart='43.0' departLane='random' departSpeed='10' />
    <vehicle id='E_S_2' type='standard_car' route='E_S' depart='44.0' departLane='random' departSpeed='10' />
    <vehicle id='S_N_3' type='standard_car' route='S_N' depart='57.0' departLane='random' departSpeed='10' />
    <vehicle id='N_S_4' type='standard_car' route='N_S' depart='58.0' departLane='random' departSpeed='10' />
    <vehicle id='E_S_5' type='standard_car' route='E_S' depart='65.0' departLane='random' departSpeed='10' />
    <vehicle id='S_W_6' type='standard_car' route='S_W' depart='66.0' departLane='random' departSpeed='10' />
    <vehicle id='S_W_7' type='standard_car' route='S_W' depart='66.0' departLane='random' departSpeed='10' />
    <vehicle id='W_E_8' type='standard_car' route='W_E' depart='67.0' departLane='random' departSpeed='10' />
    <vehicle id='W_E_9' type='standard_car' route='W_E' depart='67.0' departLane='random' departSpeed='10' />
    <vehicle id='S_N_10' type='standard_car' route='S_N' depart='69.0' departLane='random' departSpeed='10' />
    <vehicle id='S_N_11' type='standard_car' route='S_N' depart='96.0' departLane='random' departSpeed='10' />
    <vehicle id='E_W_12' type='standard_car' route='E_W' depart='102.0' departLane='random' departSpeed='10' />
    <vehicle id='S_W_13' type='standard_car' route='S_W' depart='107.0' departLane='random' departSpeed='10' />
    <vehicle id='S_N_14' type='standard_car' route='S_N' depart='112.0' departLane='random' departSpeed='10' />
    <vehicle id='N_S_15' type='standard_car' route='N_S' depart='123.0' departLane='random' departSpeed='10' />
    <vehicle id='W_N_16' type='standard_car' route='W_N' depart='129.0' departLane='random' departSpeed='10' />
    <vehicle id='E_S_17' type='standard_car' route='E_S' depart='136.0' departLane='random' departSpeed='10' />
    <vehicle id='S_W_18' type='standard_car' route='S_W' depart='136.0' departLane='random' departSpeed='10' />
    <vehicle id='W_E_19' type='standard_car' route='W_E' depart='139.0' departLane='random' departSpeed='10' />
    <vehicle id='W_N_20' type='standard_car' route='W_N' depart='142.0' departLane='random' departSpeed='10' />
    <vehicle id='W_E_21' type='standard_car' route='W_E' depart='142.0' departLane='random' departSpeed='10' />
    <vehicle id='W_E_22' type='standard_car' route='W_E' depart='143.0' departLane='random' departSpeed='10' />
    <vehicle id='W_N_23' type='standard_car' route='W_N' depart='144.0' departLane='random' departSpeed='10' />
    <vehicle id='N_W_24' type='standard_car' route='N_W' depart='146.0' departLane='random' departSpeed='10' />
    <vehicle id='W_S_25' type='standard_car' route='W_S' depart='148.0' departLane='random' departSpeed='10' />
    <vehicle id='E_S_26' type='standard_car' route='E_S' depart='149.0' departLane='random' departSpeed='10' />
    <vehicle id='S_N_27' type='standard_car' route='S_N' depart='150.0' departLane='random' departSpeed='10' />
    <vehicle id='E_W_28' type='standard_car' route='E_W' depart='154.0' departLane='random' departSpeed='10' />
    <vehicle id='W_N_29' type='standard_car' route='W_N' depart='154.0' departLane='random' departSpeed='10' />
    <vehicle id='E_W_30' type='standard_car' route='E_W' depart='156.0' departLane='random' departSpeed='10' />
    <vehicle id='N_E_31' type='standard_car' route='N_E' depart='156.0' departLane='random' departSpeed='10' />
    <vehicle id='E_W_32' type='standard_car' route='E_W' depart='159.0' departLane='random' departSpeed='10' />
    <vehicle id='S_E_33' type='standard_car' route='S_E' depart='160.0' departLane='random' departSpeed='10' />
    <vehicle id='W_N_34' type='standard_car' route='W_N' depart='161.0' departLane='random' departSpeed='10' />
    <vehicle id='N_S_35' type='standard_car' route='N_S' depart='166.0' departLane='random' departSpeed='10' />
    <vehicle id='N_W_36' type='standard_car' route='N_W' depart='168.0' departLane='random' departSpeed='10' />
    <vehicle id='N_S_37' type='standard_car' route='N_S' depart='174.0' departLane='random' departSpeed='10' />
    <vehicle id='N_S_38' type='standard_car' route='N_S' depart='174.0' departLane='random' departSpeed='10' />
    <vehicle id='S_N_39' type='standard_car' route='S_N' depart='178.0' departLane='random' departSpeed='10' />
    <vehicle id='E_W_40' type='standard_car' route='E_W' depart='179.0' departLane='random' departSpeed='10' />
    <vehicle id='E_W_41' type='standard_car' route='E_W' depart='182.0' departLane='random' departSpeed='10' />
    <vehicle id='N_W_42' type='standard_car' route='N_W' depart='186.0' departLane='random' departSpeed='10' />
    <vehicle id='W_E_43' type='standard_car' route='W_E' depart='186.0' departLane='random' departSpeed='10' />
    <vehicle id='W_E_44' type='standard_car' route='W_E' depart='186.0' departLane='random' departSpeed='10' />
    <vehicle id='N_S_45' type='standard_car' route='N_S' depart='186.0' departLane='random' departSpeed='10' />
    <vehicle id='W_N_46' type='standard_car' route='W_N' depart='191.0' departLane='random' departSpeed='10' />
    <vehicle id='E_S_47' type='standard_car' route='E_S' depart='191.0' departLane='random' departSpeed='10' />
    <vehicle id='S_W_48' type='standard_car' route='S_W' depart='193.0' departLane='random' departSpeed='10' />
    <vehicle id='E_W_49' type='standard_car' route='E_W' depart='194.0' departLane='random' departSpeed='10' />
    <vehicle id='N_S_50' type='standard_car' route='N_S' depart='195.0' departLane='random' departSpeed='10' />
    <vehicle id='E_W_51' type='standard_car' route='E_W' depart='201.0' departLane='random' departSpeed='10' />
    <vehicle id='N_W_52' type='standard_car' route='N_W' depart='205.0' departLane='random' departSpeed='10' />
    <vehicle id='S_W_53' type='standard_car' route='S_W' depart='211.0' departLane='random' departSpeed='10' />
    <vehicle id='N_W_54' type='standard_car' route='N_W' depart='213.0' departLane='random' departSpeed='10' />
    <vehicle id='W_N_55' type='standard_car' route='W_N' depart='213.0' departLane='random' departSpeed='10' />
    <vehicle id='E_W_56' type='standard_car' route='E_W' depart='213.0' departLane='random' departSpeed='10' />
    <vehicle id='S_W_57' type='standard_car' route='S_W' depart='214.0' departLane='random' departSpeed='10' />
    <vehicle id='W_E_58' type='standard_car' route='W_E' depart='214.0' departLane='random' departSpeed='10' />
    <vehicle id='W_E_59' type='standard_car' route='W_E' depart='214.0' departLane='random' departSpeed='10' />
    <vehicle id='E_S_60' type='standard_car' route='E_S' depart='214.0' departLane='random' departSpeed='10' />
    <vehicle id='E_S_61' type='standard_car' route='E_S' depart='215.0' departLane='random' departSpeed='10' />
    <vehicle id='N_E_62' type='standard_car' route='N_E' depart='215.0' departLane='random' departSpeed='10' />
    <vehicle id='S_N_63' type='standard_car' route='S_N' depart='216.0' departLane='random' departSpeed='10' />
    <vehicle id='N_W_64' type='standard_car' route='N_W' depart='217.0' departLane='random' departSpeed='10' />
    <vehicle id='N_S_65' type='standard_car' route='N_S' depart='218.0' departLane='random' departSpeed='10' />
    <vehicle id='S_N_66' type='standard_car' route='S_N' depart='220.0' departLane='random' departSpeed='10' />
    <vehicle id='S_N_67' type='standard_car' route='S_N' depart='220.0' departLane='random' departSpeed='10' />
    <vehicle id='E_W_68' type='standard_car' route='E_W' depart='225.0' departLane='random' departSpeed='10' />
    <vehicle id='E_W_69' type='standard_car' route='E_W' depart='227.0' departLane='random' departSpeed='10' />
    <vehicle id='S_N_70' type='standard_car' route='S_N' depart='228.0' departLane='random' departSpeed='10' />
    <vehicle id='N_S_71' type='standard_car' route='N_S' depart='229.0' departLane='random' departSpeed='10' />
    <vehicle id='W_N_72' type='standard_car' route='W_N' depart='231.0' departLane='random' departSpeed='10' />
    <vehicle id='S_W_73' type='standard_car' route='S_W' depart='232.0' departLane='random' departSpeed='10' />
    <vehicle id='N_S_74' type='standard_car' route='N_S' depart='233.0' departLane='random' departSpeed='10' />
    <vehicle id='W_E_75' type='standard_car' route='W_E' depart='233.0' departLane='random' departSpeed='10' />
    <vehicle id='W_E_76' type='standard_car' route='W_E' depart='233.0' departLane='random' departSpeed='10' />
    <vehicle id='N_S_77' type='standard_car' route='N_S' depart='236.0' departLane='random' departSpeed='10' />
    <vehicle id='N_S_78' type='standard_car' route='N_S' depart='237.0' departLane='random' departSpeed='10' />
    <vehicle id='S_N_79' type='standard_car' route='S_N' depart='240.0' departLane='random' departSpeed='10' />
    <vehicle id='S_W_80' type='standard_car' route='S_W' depart='240.0' departLane='random' departSpeed='10' />
    <vehicle id='E_W_81' type='standard_car' route='E_W' depart='240.0' departLane='random' departSpeed='10' />
    <vehicle id='S_W_82' type='standard_car' route='S_W' depart='241.0' departLane='random' departSpeed='10' />
    <vehicle id='N_E_83' type='standard_car' route='N_E' depart='242.0' departLane='random' departSpeed='10' />
    <vehicle id='N_E_84' type='standard_car' route='N_E' depart='242.0' departLane='random' departSpeed='10' />
    <vehicle id='N_E_85' type='standard_car' route='N_E' depart='243.0' departLane='random' departSpeed='10' />
    <vehicle id='S_N_86' type='standard_car' route='S_N' depart='244.0' departLane='random' departSpeed='10' />
    <vehicle id='E_W_87' type='standard_car' route='E_W' depart='244.0' departLane='random' departSpeed='10' />
    <vehicle id='W_N_88' type='standard_car' route='W_N' depart='245.0' departLane='random' departSpeed='10' />
    <vehicle id='S_W_89' type='standard_car' route='S_W' depart='251.0' departLane='random' departSpeed='10' />
    <vehicle id='W_S_90' type='standard_car' route='W_S' depart='255.0' departLane='random' departSpeed='10' />
    <vehicle id='W_E_91' type='standard_car' route='W_E' depart='258.0' departLane='random' departSpeed='10' />
    <vehicle id='W_N_92' type='standard_car' route='W_N' depart='258.0' departLane='random' departSpeed='10' />
    <vehicle id='E_W_93' type='standard_car' route='E_W' depart='260.0' departLane='random' departSpeed='10' />
    <vehicle id='W_E_94' type='standard_car' route='W_E' depart='260.0' departLane='random' departSpeed='10' />
    <vehicle id='S_E_95' type='standard_car' route='S_E' depart='263.0' departLane='random' departSpeed='10' />
    <vehicle id='N_S_96' type='standard_car' route='N_S' depart='263.0' departLane='random' departSpeed='10' />
    <vehicle id='S_N_97' type='standard_car' route='S_N' depart='264.0' departLane='random' departSpeed='10' />
    <vehicle id='W_N_98' type='standard_car' route='W_N' depart='267.0' departLane='random' departSpeed='10' />
    <vehicle id='E_W_99' type='standard_car' route='E_W' depart='267.0' departLane='random' departSpeed='10' />
    <vehicle id='S_W_100' type='standard_car' route='S_W' depart='269.0' departLane='random' departSpeed='10' />
    <vehicle id='N_E_101' type='standard_car' route='N_E' depart='269.0' departLane='random' departSpeed='10' />
    <vehicle id='W_N_102' type='standard_car' route='W_N' depart='270.0' departLane='random' departSpeed='10' />
    <vehicle id='E_W_103' type='standard_car' route='E_W' depart='277.0' departLane='random' departSpeed='10' />
    <vehicle id='N_E_104' type='standard_car' route='N_E' depart='278.0' departLane='random' departSpeed='10' />
    <vehicle id='E_S_105' type='standard_car' route='E_S' depart='282.0' departLane='random' departSpeed='10' />
    <vehicle id='W_N_106' type='standard_car' route='W_N' depart='282.0' departLane='random' departSpeed='10' />
    <vehicle id='E_S_107' type='standard_car' route='E_S' depart='283.0' departLane='random' departSpeed='10' />
    <vehicle id='W_N_108' type='standard_car' route='W_N' depart='286.0' departLane='random' departSpeed='10' />
    <vehicle id='E_N_109' type='standard_car' route='E_N' depart='286.0' departLane='random' departSpeed='10' />
    <vehicle id='W_E_110' type='standard_car' route='W_E' depart='289.0' departLane='random' departSpeed='10' />
    <vehicle id='W_N_111' type='standard_car' route='W_N' depart='292.0' departLane='random' departSpeed='10' />
    <vehicle id='W_N_112' type='standard_car' route='W_N' depart='294.0' departLane='random' departSpeed='10' />
    <vehicle id='E_W_113' type='standard_car' route='E_W' depart='295.0' departLane='random' departSpeed='10' />
    <vehicle id='W_E_114' type='standard_car' route='W_E' depart='297.0' departLane='random' departSpeed='10' />
    <vehicle id='W_E_115' type='standard_car' route='W_E' depart='298.0' departLane='random' departSpeed='10' />
    <vehicle id='S_N_116' type='standard_car' route='S_N' depart='299.0' departLane='random' departSpeed='10' />
    <vehicle id='S_N_117' type='standard_car' route='S_N' depart='301.0' departLane='random' departSpeed='10' />
    <vehicle id='N_S_118' type='standard_car' route='N_S' depart='302.0' departLane='random' departSpeed='10' />
    <vehicle id='W_N_119' type='standard_car' route='W_N' depart='303.0' departLane='random' departSpeed='10' />
    <vehicle id='E_S_120' type='standard_car' route='E_S' depart='304.0' departLane='random' departSpeed='10' />
    <vehicle id='N_S_121' type='standard_car' route='N_S' depart='305.0' departLane='random' departSpeed='10' />
    <vehicle id='E_S_122' type='standard_car' route='E_S' depart='305.0' departLane='random' departSpeed='10' />
    <vehicle id='N_E_123' type='standard_car' route='N_E' depart='305.0' departLane='random' departSpeed='10' />
    <vehicle id='N_E_124' type='standard_car' route='N_E' depart='306.0' departLane='random' departSpeed='10' />
    <vehicle id='W_E_125' type='standard_car' route='W_E' depart='307.0' departLane='random' departSpeed='10' />
    <vehicle id='S_N_126' type='standard_car' route='S_N' depart='308.0' departLane='random' departSpeed='10' />
    <vehicle id='S_E_127' type='standard_car' route='S_E' depart='308.0' departLane='random' departSpeed='10' />
    <vehicle id='E_N_128' type='standard_car' route='E_N' depart='309.0' departLane='random' departSpeed='10' />
    <vehicle id='N_E_129' type='standard_car' route='N_E' depart='311.0' departLane='random' departSpeed='10' />
    <vehicle id='N_S_130' type='standard_car' route='N_S' depart='312.0' departLane='random' departSpeed='10' />
    <vehicle id='E_S_131' type='standard_car' route='E_S' depart='312.0' departLane='random' departSpeed='10' />
    <vehicle id='N_E_132' type='standard_car' route='N_E' depart='313.0' departLane='random' departSpeed='10' />
    <vehicle id='S_W_133' type='standard_car' route='S_W' depart='314.0' departLane='random' departSpeed='10' />
    <vehicle id='E_N_134' type='standard_car' route='E_N' depart='315.0' departLane='random' departSpeed='10' />
    <vehicle id='E_S_135' type='standard_car' route='E_S' depart='317.0' departLane='random' departSpeed='10' />
    <vehicle id='N_S_136' type='standard_car' route='N_S' depart='318.0' departLane='random' departSpeed='10' />
    <vehicle id='W_E_137' type='standard_car' route='W_E' depart='320.0' departLane='random' departSpeed='10' />
    <vehicle id='E_W_138' type='standard_car' route='E_W' depart='326.0' departLane='random' departSpeed='10' />
    <vehicle id='S_E_139' type='standard_car' route='S_E' depart='326.0' departLane='random' departSpeed='10' />
    <vehicle id='N_E_140' type='standard_car' route='N_E' depart='328.0' departLane='random' departSpeed='10' />
    <vehicle id='E_N_141' type='standard_car' route='E_N' depart='329.0' departLane='random' departSpeed='10' />
    <vehicle id='S_N_142' type='standard_car' route='S_N' depart='329.0' departLane='random' departSpeed='10' />
    <vehicle id='E_W_143' type='standard_car' route='E_W' depart='332.0' departLane='random' departSpeed='10' />
    <vehicle id='S_N_144' type='standard_car' route='S_N' depart='333.0' departLane='random' departSpeed='10' />
    <vehicle id='N_E_145' type='standard_car' route='N_E' depart='335.0' departLane='random' departSpeed='10' />
    <vehicle id='S_W_146' type='standard_car' route='S_W' depart='335.0' departLane='random' departSpeed='10' />
    <vehicle id='E_S_147' type='standard_car' route='E_S' depart='338.0' departLane='random' departSpeed='10' />
    <vehicle id='S_E_148' type='standard_car' route='S_E' depart='338.0' departLane='random' departSpeed='10' />
    <vehicle id='N_E_149' type='standard_car' route='N_E' depart='338.0' departLane='random' departSpeed='10' />
    <vehicle id='S_N_150' type='standard_car' route='S_N' depart='339.0' departLane='random' departSpeed='10' />
    <vehicle id='N_S_151' type='standard_car' route='N_S' depart='340.0' departLane='random' departSpeed='10' />
    <vehicle id='W_N_152' type='standard_car' route='W_N' depart='340.0' departLane='random' departSpeed='10' />
    <vehicle id='E_S_153' type='standard_car' route='E_S' depart='341.0' departLane='random' departSpeed='10' />
    <vehicle id='W_E_154' type='standard_car' route='W_E' depart='342.0' departLane='random' departSpeed='10' />
    <vehicle id='N_S_155' type='standard_car' route='N_S' depart='343.0' departLane='random' departSpeed='10' />
    <vehicle id='W_E_156' type='standard_car' route='W_E' depart='344.0' departLane='random' departSpeed='10' />
    <vehicle id='E_W_157' type='standard_car' route='E_W' depart='345.0' departLane='random' departSpeed='10' />
    <vehicle id='N_S_158' type='standard_car' route='N_S' depart='346.0' departLane='random' departSpeed='10' />
    <vehicle id='E_W_159' type='standard_car' route='E_W' depart='346.0' departLane='random' departSpeed='10' />
    <vehicle id='N_S_160' type='standard_car' route='N_S' depart='349.0' departLane='random' departSpeed='10' />
    <vehicle id='N_S_161' type='standard_car' route='N_S' depart='351.0' departLane='random' departSpeed='10' />
    <vehicle id='E_N_162' type='standard_car' route='E_N' depart='351.0' departLane='random' departSpeed='10' />
    <vehicle id='W_E_163' type='standard_car' route='W_E' depart='353.0' departLane='random' departSpeed='10' />
    <vehicle id='S_E_164' type='standard_car' route='S_E' depart='354.0' departLane='random' departSpeed='10' />
    <vehicle id='N_E_165' type='standard_car' route='N_E' depart='354.0' departLane='random' departSpeed='10' />
    <vehicle id='N_S_166' type='standard_car' route='N_S' depart='355.0' departLane='random' departSpeed='10' />
    <vehicle id='W_E_167' type='standard_car' route='W_E' depart='355.0' departLane='random' departSpeed='10' />
    <vehicle id='N_E_168' type='standard_car' route='N_E' depart='356.0' departLane='random' departSpeed='10' />
    <vehicle id='S_N_169' type='standard_car' route='S_N' depart='356.0' departLane='random' departSpeed='10' />
    <vehicle id='E_W_170' type='standard_car' route='E_W' depart='357.0' departLane='random' departSpeed='10' />
    <vehicle id='W_N_171' type='standard_car' route='W_N' depart='360.0' departLane='random' departSpeed='10' />
    <vehicle id='S_N_172' type='standard_car' route='S_N' depart='362.0' departLane='random' departSpeed='10' />
    <vehicle id='S_W_173' type='standard_car' route='S_W' depart='363.0' departLane='random' departSpeed='10' />
    <vehicle id='E_W_174' type='standard_car' route='E_W' depart='364.0' departLane='random' departSpeed='10' />
    <vehicle id='S_N_175' type='standard_car' route='S_N' depart='365.0' departLane='random' departSpeed='10' />
    <vehicle id='N_W_176' type='standard_car' route='N_W' depart='366.0' departLane='random' departSpeed='10' />
    <vehicle id='E_W_177' type='standard_car' route='E_W' depart='366.0' departLane='random' departSpeed='10' />
    <vehicle id='S_E_178' type='standard_car' route='S_E' depart='369.0' departLane='random' departSpeed='10' />
    <vehicle id='N_S_179' type='standard_car' route='N_S' depart='369.0' departLane='random' departSpeed='10' />
    <vehicle id='E_W_180' type='standard_car' route='E_W' depart='369.0' departLane='random' departSpeed='10' />
    <vehicle id='S_N_181' type='standard_car' route='S_N' depart='370.0' departLane='random' departSpeed='10' />
    <vehicle id='W_E_182' type='standard_car' route='W_E' depart='373.0' departLane='random' departSpeed='10' />
    <vehicle id='W_E_183' type='standard_car' route='W_E' depart='373.0' departLane='random' departSpeed='10' />
    <vehicle id='N_S_184' type='standard_car' route='N_S' depart='375.0' departLane='random' departSpeed='10' />
    <vehicle id='E_W_185' type='standard_car' route='E_W' depart='375.0' departLane='random' departSpeed='10' />
    <vehicle id='W_E_186' type='standard_car' route='W_E' depart='376.0' departLane='random' departSpeed='10' />
    <vehicle id='S_N_187' type='standard_car' route='S_N' depart='379.0' departLane='random' departSpeed='10' />
    <vehicle id='N_E_188' type='standard_car' route='N_E' depart='381.0' departLane='random' departSpeed='10' />
    <vehicle id='E_W_189' type='standard_car' route='E_W' depart='381.0' departLane='random' departSpeed='10' />
    <vehicle id='N_S_190' type='standard_car' route='N_S' depart='382.0' departLane='random' departSpeed='10' />
    <vehicle id='S_W_191' type='standard_car' route='S_W' depart='383.0' departLane='random' departSpeed='10' />
    <vehicle id='E_W_192' type='standard_car' route='E_W' depart='388.0' departLane='random' departSpeed='10' />
    <vehicle id='N_S_193' type='standard_car' route='N_S' depart='390.0' departLane='random' departSpeed='10' />
    <vehicle id='S_N_194' type='standard_car' route='S_N' depart='391.0' departLane='random' departSpeed='10' />
    <vehicle id='W_S_195' type='standard_car' route='W_S' depart='393.0' departLane='random' departSpeed='10' />
    <vehicle id='N_S_196' type='standard_car' route='N_S' depart='396.0' departLane='random' departSpeed='10' />
    <vehicle id='W_E_197' type='standard_car' route='W_E' depart='397.0' departLane='random' departSpeed='10' />
    <vehicle id='N_E_198' type='standard_car' route='N_E' depart='397.0' departLane='random' departSpeed='10' />
    <vehicle id='E_S_199' type='standard_car' route='E_S' depart='400.0' departLane='random' departSpeed='10' />
    <vehicle id='E_W_200' type='standard_car' route='E_W' depart='402.0' departLane='random' departSpeed='10' />
    <vehicle id='N_E_201' type='standard_car' route='N_E' depart='402.0' departLane='random' departSpeed='10' />
    <vehicle id='W_E_202' type='standard_car' route='W_E' depart='402.0' departLane='random' departSpeed='10' />
    <vehicle id='N_E_203' type='standard_car' route='N_E' depart='403.0' departLane='random' departSpeed='10' />
    <vehicle id='E_W_204' type='standard_car' route='E_W' depart='404.0' departLane='random' departSpeed='10' />
    <vehicle id='N_E_205' type='standard_car' route='N_E' depart='404.0' departLane='random' departSpeed='10' />
    <vehicle id='E_S_206' type='standard_car' route='E_S' depart='404.0' departLane='random' departSpeed='10' />
    <vehicle id='W_E_207' type='standard_car' route='W_E' depart='406.0' departLane='random' departSpeed='10' />
    <vehicle id='E_S_208' type='standard_car' route='E_S' depart='406.0' departLane='random' departSpeed='10' />
    <vehicle id='N_E_209' type='standard_car' route='N_E' depart='406.0' departLane='random' departSpeed='10' />
    <vehicle id='W_S_210' type='standard_car' route='W_S' depart='407.0' departLane='random' departSpeed='10' />
    <vehicle id='W_N_211' type='standard_car' route='W_N' depart='407.0' departLane='random' departSpeed='10' />
    <vehicle id='S_N_212' type='standard_car' route='S_N' depart='408.0' departLane='random' departSpeed='10' />
    <vehicle id='E_S_213' type='standard_car' route='E_S' depart='408.0' departLane='random' departSpeed='10' />
    <vehicle id='W_E_214' type='standard_car' route='W_E' depart='408.0' departLane='random' departSpeed='10' />
    <vehicle id='N_S_215' type='standard_car' route='N_S' depart='409.0' departLane='random' departSpeed='10' />
    <vehicle id='W_E_216' type='standard_car' route='W_E' depart='410.0' departLane='random' departSpeed='10' />
    <vehicle id='N_E_217' type='standard_car' route='N_E' depart='410.0' departLane='random' departSpeed='10' />
    <vehicle id='W_N_218' type='standard_car' route='W_N' depart='412.0' departLane='random' departSpeed='10' />
    <vehicle id='E_S_219' type='standard_car' route='E_S' depart='414.0' departLane='random' departSpeed='10' />
    <vehicle id='N_S_220' type='standard_car' route='N_S' depart='414.0' departLane='random' departSpeed='10' />
    <vehicle id='E_W_221' type='standard_car' route='E_W' depart='419.0' departLane='random' departSpeed='10' />
    <vehicle id='W_N_222' type='standard_car' route='W_N' depart='420.0' departLane='random' departSpeed='10' />
    <vehicle id='E_S_223' type='standard_car' route='E_S' depart='421.0' departLane='random' departSpeed='10' />
    <vehicle id='N_E_224' type='standard_car' route='N_E' depart='421.0' departLane='random' departSpeed='10' />
    <vehicle id='N_S_225' type='standard_car' route='N_S' depart='422.0' departLane='random' departSpeed='10' />
    <vehicle id='E_S_226' type='standard_car' route='E_S' depart='422.0' departLane='random' departSpeed='10' />
    <vehicle id='N_S_227' type='standard_car' route='N_S' depart='423.0' departLane='random' departSpeed='10' />
    <vehicle id='S_N_228' type='standard_car' route='S_N' depart='423.0' departLane='random' departSpeed='10' />
    <vehicle id='E_W_229' type='standard_car' route='E_W' depart='424.0' departLane='random' departSpeed='10' />
    <vehicle id='N_S_230' type='standard_car' route='N_S' depart='425.0' departLane='random' departSpeed='10' />
    <vehicle id='W_E_231' type='standard_car' route='W_E' depart='427.0' departLane='random' departSpeed='10' />
    <vehicle id='N_E_232' type='standard_car' route='N_E' depart='427.0' departLane='random' departSpeed='10' />
    <vehicle id='E_S_233' type='standard_car' route='E_S' depart='427.0' departLane='random' departSpeed='10' />
    <vehicle id='N_W_234' type='standard_car' route='N_W' depart='430.0' departLane='random' departSpeed='10' />
    <vehicle id='W_E_235' type='standard_car' route='W_E' depart='430.0' departLane='random' departSpeed='10' />
    <vehicle id='N_S_236' type='standard_car' route='N_S' depart='430.0' departLane='random' departSpeed='10' />
    <vehicle id='N_E_237' type='standard_car' route='N_E' depart='432.0' departLane='random' departSpeed='10' />
    <vehicle id='S_N_238' type='standard_car' route='S_N' depart='432.0' departLane='random' departSpeed='10' />
    <vehicle id='N_E_239' type='standard_car' route='N_E' depart='433.0' departLane='random' departSpeed='10' />
    <vehicle id='E_W_240' type='standard_car' route='E_W' depart='438.0' departLane='random' departSpeed='10' />
    <vehicle id='S_N_241' type='standard_car' route='S_N' depart='440.0' departLane='random' departSpeed='10' />
    <vehicle id='W_S_242' type='standard_car' route='W_S' depart='440.0' departLane='random' departSpeed='10' />
    <vehicle id='W_E_243' type='standard_car' route='W_E' depart='442.0' departLane='random' departSpeed='10' />
    <vehicle id='N_S_244' type='standard_car' route='N_S' depart='443.0' departLane='random' departSpeed='10' />
    <vehicle id='S_W_245' type='standard_car' route='S_W' depart='444.0' departLane='random' departSpeed='10' />
    <vehicle id='S_W_246' type='standard_car' route='S_W' depart='444.0' departLane='random' departSpeed='10' />
    <vehicle id='N_S_247' type='standard_car' route='N_S' depart='445.0' departLane='random' departSpeed='10' />
    <vehicle id='W_E_248' type='standard_car' route='W_E' depart='445.0' departLane='random' departSpeed='10' />
    <vehicle id='S_N_249' type='standard_car' route='S_N' depart='446.0' departLane='random' departSpeed='10' />
    <vehicle id='E_W_250' type='standard_car' route='E_W' depart='447.0' departLane='random' departSpeed='10' />
    <vehicle id='E_S_251' type='standard_car' route='E_S' depart='449.0' departLane='random' departSpeed='10' />
    <vehicle id='W_E_252' type='standard_car' route='W_E' depart='449.0' departLane='random' departSpeed='10' />
    <vehicle id='E_W_253' type='standard_car' route='E_W' depart='450.0' departLane='random' departSpeed='10' />
    <vehicle id='E_W_254' type='standard_car' route='E_W' depart='451.0' departLane='random' departSpeed='10' />
    <vehicle id='N_S_255' type='standard_car' route='N_S' depart='451.0' departLane='random' departSpeed='10' />
    <vehicle id='N_E_256' type='standard_car' route='N_E' depart='451.0' departLane='random' departSpeed='10' />
    <vehicle id='S_W_257' type='standard_car' route='S_W' depart='452.0' departLane='random' departSpeed='10' />
    <vehicle id='N_S_258' type='standard_car' route='N_S' depart='453.0' departLane='random' departSpeed='10' />