<routes>
        <vType id="standard_car" length="3.0" maxSpeed="15" minGap="1.0" accel="1.0" decel="4.0" />
        <route id="N_S" edges="gneE1 -gneE3"/>
        <route id="N_E" edges="gneE1 -gneE0"/>
        <route id="N_W" edges="gneE1 -gneE2"/>
        <route id="S_W" edges="gneE3 -gneE2"/>
        <route id="S_E" edges="gneE3 -gneE0"/>
        <route id="S_N" edges="gneE3 -gneE1"/>
        
        <route id="W_E" edges="gneE2 -gneE0"/>
        <route id="W_N" edges="gneE2 -gneE1"/>
        <route id="W_S" edges="gneE2 -gneE3"/>
        <route id="E_N" edges="gneE0 -gneE1"/>
        <route id="E_S" edges="gneE0 -gneE3"/>
        <route id="E_W" edges="gneE0 -gneE2"/>
        
    <vehicle id='W_E_0' type='standard_car' route='W_E' depart='30.0' departLane='random' departSpeed='10' />
    <vehicle id='S_E_1' type='standard_car' route='S_E' depart='51.0' departLane='random' departSpeed='10' />
    <vehicle id='E_N_2' type='standard_car' route='E_N' depart='52.0' departLane='random' departSpeed='10' />
    <vehicle id='W_E_3' type='standard_car' route='W_E' depart='70.0' departLane='random' departSpeed='10' />
    <vehicle id='E_S_4' type='standard_car' route='E_S' depart='72.0' departLane='random' departSpeed='10' />
    <vehicle id='S_N_5' type='standard_car' route='S_N' depart='76.0' departLane='random' departSpeed='10' />
    <vehicle id='E_W_6' type='standard_car' route='E_W' depart='78.0' departLane='random' departSpeed='10' />
    <vehicle id='E_W_7' type='standard_car' route='E_W' depart='81.0' departLane='random' departSpeed='10' />
    <vehicle id='N_S_8' type='standard_car' route='N_S' depart='85.0' departLane='random' departSpeed='10' />
    <vehicle id='N_S_9' type='standard_car' route='N_S' depart='85.0' departLane='random' departSpeed='10' />
    <vehicle id='E_W_10' type='standard_car' route='E_W' depart='89.0' departLane='random' departSpeed='10' />
    <vehicle id='S_N_11' type='standard_car' route='S_N' depart='90.0' departLane='random' departSpeed='10' />
    <vehicle id='N_W_12' type='standard_car' route='N_W' depart='114.0' departLane='random' departSpeed='10' />
    <vehicle id='S_E_13' type='standard_car' route='S_E' depart='116.0' departLane='random' departSpeed='10' />
    <vehicle id='S_N_14' type='standard_car' route='S_N' depart='120.0' departLane='random' departSpeed='10' />
    <vehicle id='E_W_15' type='standard_car' route='E_W' depart='121.0' departLane='random' departSpeed='10' />
    <vehicle id='E_N_16' type='standard_car' route='E_N' depart='123.0' departLane='random' departSpeed='10' />
    <vehicle id='E_W_17' type='standard_car' route='E_W' depart='124.0' departLane='random' departSpeed='10' />
    <vehicle id='E_W_18' type='standard_car' route='E_W' depart='130.0' departLane='random' departSpeed='10' />
    <vehicle id='N_W_19' type='standard_car' route='N_W' depart='131.0' departLane='random' departSpeed='10' />
    <vehicle id='E_N_20' type='standard_car' route='E_N' depart='140.0' departLane='random' departSpeed='10' />
    <vehicle id='E_W_21' type='standard_car' route='E_W' depart='140.0' departLane='random' departSpeed='10' />
    <vehicle id='N_W_22' type='standard_car' route='N_W' depart='143.0' departLane='random' departSpeed='10' />
    <vehicle id='N_W_23' type='standard_car' route='N_W' depart='154.0' departLane='random' departSpeed='10' />
    <vehicle id='E_N_24' type='standard_car' route='E_N' depart='162.0' departLane='random' departSpeed='10' />
    <vehicle id='W_S_25' type='standard_car' route='W_S' depart='164.0' departLane='random' departSpeed='10' />
    <vehicle id='S_N_26' type='standard_car' route='S_N' depart='165.0' departLane='random' departSpeed='10' />
    <vehicle id='N_S_27' type='standard_car' route='N_S' depart='168.0' departLane='random' departSpeed='10' />
    <vehicle id='W_E_28' type='standard_car' route='W_E' depart='170.0' departLane='random' departSpeed='10' />
    <vehicle id='E_S_29' type='standard_car' route='E_S' depart='175.0' departLane='random' departSpeed='10' />
    <vehicle id='W_E_30' type='standard_car' route='W_E' depart='178.0' departLane='random' departSpeed='10' />
    <vehicle id='S_N_31' type='standard_car' route='S_N' depart='181.0' departLane='random' departSpeed='10' />
    <vehicle id='N_S_32' type='standard_car' route='N_S' depart='183.0' departLane='random' departSpeed='10' />
    <vehicle id='E_S_33' type='standard_car' route='E_S' depart='187.0' departLane='random' departSpeed='10' />
    <vehicle id='S_N_34' type='standard_car' route='S_N' depart='188.0' departLane='random' departSpeed='10' />
    <vehicle id='E_S_35' type='standard_car' route='E_S' depart='188.0' departLane='random' departSpeed='10' />
    <vehicle id='S_N_36' type='standard_car' route='S_N' depart='189.0' departLane='random' departSpeed='10' />
    <vehicle id='S_N_37' type='standard_car' route='S_N' depart='190.0' departLane='random' departSpeed='10' />
    <vehicle id='W_E_38' type='standard_car' route='W_E' depart='191.0' departLane='random' departSpeed='10' />
    <vehicle id='E_S_39' type='standard_car' route='E_S' depart='195.0' departLane='random' departSpeed='10' />
    <vehicle id='W_N_40' type='standard_car' route='W_N' depart='200.0' departLane='random' departSpeed='10' />
    <vehicle id='E_W_41' type='standard_car' route='E_W' depart='202.0' departLane='random' departSpeed='10' />
    <vehicle id='S_W_42' type='standard_car' route='S_W' depart='202.0' departLane='random' departSpeed='10' />
    <vehicle id='E_N_43' type='standard_car' route='E_N' depart='203.0' departLane='random' departSpeed='10' />
    <vehicle id='W_N_44' type='standard_car' route='W_N' depart='204.0' departLane='random' departSpeed='10' />
    <vehicle id='N_W_45' type='standard_car' route='N_W' depart='205.0' departLane='random' departSpeed='10' />
    <vehicle id='W_E_46' type='standard_car' route='W_E' depart='212.0' departLane='random' departSpeed='10' />
    <vehicle id='E_S_47' type='standard_car' route='E_S' depart='213.0' departLane='random' departSpeed='10' />
    <vehicle id='N_W_48' type='standard_car' route='N_W' depart='218.0' departLane='random' departSpeed='10' />
    <vehicle id='E_S_49' type='standard_car' route='E_S' depart='220.0' departLane='random' departSpeed='10' />
    <vehicle id='W_E_50' type='standard_car' route='W_E' depart='223.0' departLane='random' departSpeed='10' />
    <vehicle id='N_S_51' type='standard_car' route='N_S' depart='225.0' departLane='random' departSpeed='10' />
    <vehicle id='S_N_52' type='standard_car' route='S_N' depart='225.0' departLane='random' departSpeed='10' />
    <vehicle id='E_W_53' type='standard_car' route='E_W' depart='226.0' departLane='random' departSpeed='10' />
    <vehicle id='W_S_54' type='standard_car' route='W_S' depart='226.0' departLane='random' departSpeed='10' />
    <vehicle id='S_N_55' type='standard_car' route='S_N' depart='229.0' departLane='random' departSpeed='10' />
    <vehicle id='W_E_56' type='standard_car' route='W_E' depart='232.0' departLane='random' departSpeed='10' />
    <vehicle id='W_N_57' type='standard_car' route='W_N' depart='232.0' departLane='random' departSpeed='10' />
    <vehicle id='W_S_58' type='standard_car' route='W_S' depart='233.0' departLane='random' departSpeed='10' />
    <vehicle id='S_N_59' type='standard_car' route='S_N' depart='236.0' departLane='random' departSpeed='10' />
    <vehicle id='E_N_60' type='standard_car' route='E_N' depart='237.0' departLane='random' departSpeed='10' />
    <vehicle id='W_E_61' type='standard_car' route='W_E' depart='238.0' departLane='random' departSpeed='10' />
    <vehicle id='E_W_62' type='standard_car' route='E_W' depart='240.0' departLane='random' departSpeed='10' />
    <vehicle id='N_W_63' type='standard_car' route='N_W' depart='241.0' departLane='random' departSpeed='10' />
    <vehicle id='E_W_64' type='standard_car' route='E_W' depart='243.0' departLane='random' departSpeed='10' />
    <vehicle id='N_W_65' type='standard_car' route='N_W' depart='244.0' departLane='random' departSpeed='10' />
    <vehicle id='N_S_66' type='standard_car' route='N_S' depart='247.0' departLane='random' departSpeed='10' />
    <vehicle id='E_W_67' type='standard_car' route='E_W' depart='249.0' departLane='random' departSpeed='10' />
    <vehicle id='E_W_68' type='standard_car' route='E_W' depart='249.0' departLane='random' departSpeed='10' />
    <vehicle id='N_E_69' type='standard_car' route='N_E' depart='251.0' departLane='random' departSpeed='10' />
    <vehicle id='S_N_70' type='standard_car' route='S_N' depart='251.0' departLane='random' departSpeed='10' />
    <vehicle id='W_E_71' type='standard_car' route='W_E' depart='252.0' departLane='random' departSpeed='10' />
    <vehicle id='E_W_72' type='standard_car' route='E_W' depart='252.0' departLane='random' departSpeed='10' />
    <vehicle id='W_E_73' type='standard_car' route='W_E' depart='253.0' departLane='random' departSpeed='10' />
    <vehicle id='S_W_74' type='standard_car' route='S_W' depart='253.0' departLane='random' departSpeed='10' />
    <vehicle id='S_W_75' type='standard_car' route='S_W' depart='258.0' departLane='random' departSpeed='10' />
    <vehicle id='E_W_76' type='standard_car' route='E_W' depart='258.0' departLane='random' departSpeed='10' />
    <vehicle id='W_N_77' type='standard_car' route='W_N' depart='259.0' departLane='random' departSpeed='10' />
    <vehicle id='E_W_78' type='standard_car' route='E_W' depart='260.0' departLane='random' departSpeed='10' />
    <vehicle id='W_N_79' type='standard_car' route='W_N' depart='261.0' departLane='random' departSpeed='10' />
    <vehicle id='W_N_80' type='standard_car' route='W_N' depart='261.0' departLane='random' departSpeed='10' />
    <vehicle id='N_E_81' type='standard_car' route='N_E' depart='262.0' departLane='random' departSpeed='10' />
    <vehicle id='N_E_82' type='standard_car' route='N_E' depart='263.0' departLane='random' departSpeed='10' />
    <vehicle id='E_W_83' type='standard_car' route='E_W' depart='264.0' departLane='random' departSpeed='10' />
    <vehicle id='N_W_84' type='standard_car' route='N_W' depart='265.0' departLane='random' departSpeed='10' />
    <vehicle id='E_N_85' type='standard_car' route='E_N' depart='265.0' departLane='random' departSpeed='10' />
    <vehicle id='N_S_86' type='standard_car' route='N_S' depart='266.0' departLane='random' departSpeed='10' />
    <vehicle id='S_W_87' type='standard_car' route='S_W' depart='268.0' departLane='random' departSpeed='10' />
    <vehicle id='N_S_88' type='standard_car' route='N_S' depart='270.0' departLane='random' departSpeed='10' />
    <vehicle id='N_S_89' type='standard_car' route='N_S' depart='272.0' departLane='random' departSpeed='10' />
    <vehicle id='S_W_90' type='standard_car' route='S_W' depart='273.0' departLane='random' departSpeed='10' />
    <vehicle id='W_N_91' type='standard_car' route='W_N' depart='276.0' departLane='random' departSpeed='10' />
    <vehicle id='S_N_92' type='standard_car' route='S_N' depart='276.0' departLane='random' departSpeed='10' />
    <vehicle id='N_S_93' type='standard_car' route='N_S' depart='277.0' departLane='random' departSpeed='10' />
    <vehicle id='W_S_94' type='standard_car' route='W_S' depart='278.0' departLane='random' departSpeed='10' />
    <vehicle id='W_S_95' type='standard_car' route='W_S' depart='281.0' departLane='random' departSpeed='10' />
    <vehicle id='N_S_96' type='standard_car' route='N_S' depart='281.0' departLane='random' departSpeed='10' />
    <vehicle id='N_E_97' type='standard_car' route='N_E' depart='282.0' departLane='random' departSpeed='10' />
    <vehicle id='E_S_98' type='standard_car' route='E_S' depart='283.0' departLane='random' departSpeed='10' />
    <vehicle id='N_S_99' type='standard_car' route='N_S' depart='285.0' departLane='random' departSpeed='10' />
    <vehicle id='N_E_100' type='standard_car' route='N_E' depart='288.0' departLane='random' departSpeed='10' />
    <vehicle id='W_N_101' type='standard_car' route='W_N' depart='289.0' departLane='random' departSpeed='10' />
    <vehicle id='N_E_102' type='standard_car' route='N_E' depart='290.0' departLane='random' departSpeed='10' />
    <vehicle id='W_E_103' type='standard_car' route='W_E' depart='290.0' departLane='random' departSpeed='10' />
    <vehicle id='W_S_104' type='standard_car' route='W_S' depart='290.0' departLane='random' departSpeed='10' />
    <vehicle id='W_S_105' type='standard_car' route='W_S' depart='295.0' departLane='random' departSpeed='10' />
    <vehicle id='E_W_106' type='standard_car' route='E_W' depart='296.0' departLane='random' departSpeed='10' />
    <vehicle id='W_E_107' type='standard_car' route='W_E' depart='297.0' departLane='random' departSpeed='10' />
    <vehicle id='N_W_108' type='standard_car' route='N_W' depart='299.0' departLane='random' departSpeed='10' />
    <vehicle id='N_S_109' type='standard_car' route='N_S' depart='299.0' departLane='random' departSpeed='10' />
    <vehicle id='W_S_110' type='standard_car' route='W_S' depart='302.0' departLane='random' departSpeed='10' />
    <vehicle id='W_S_111' type='standard_car' route='W_S' depart='303.0' departLane='random' departSpeed='10' />
    <vehicle id='N_E_112' type='standard_car' route='N_E' depart='303.0' departLane='random' departSpeed='10' />
    <vehicle id='S_N_113' type='standard_car' route='S_N' depart='303.0' departLane='random' departSpeed='10' />
    <vehicle id='N_S_114' type='standard_car' route='N_S' depart='306.0' departLane='random' departSpeed='10' />
    <vehicle id='S_E_115' type='standard_car' route='S_E' depart='309.0' departLane='random' departSpeed='10' />
    <vehicle id='N_S_116' type='standard_car' route='N_S' depart='309.0' departLane='random' departSpeed='10' />
    <vehicle id='S_W_117' type='standard_car' route='S_W' depart='312.0' departLane='random' departSpeed='10' />
    <vehicle id='N_E_118' type='standard_car' route='N_E' depart='313.0' departLane='random' departSpeed='10' />
    <vehicle id='E_N_119' type='standard_car' route='E_N' depart='315.0' departLane='random' departSpeed='10' />
    <vehicle id='W_E_120' type='standard_car' route='W_E' depart='315.0' departLane='random' departSpeed='10' />
    <vehicle id='E_N_121' type='standard_car' route='E_N' depart='315.0' departLane='random' departSpeed='10' />
    <vehicle id='N_E_122' type='standard_car' route='N_E' depart='318.0' departLane='random' departSpeed='10' />
    <vehicle id='S_N_123' type='standard_car' route='S_N' depart='318.0' departLane='random' departSpeed='10' />
    <vehicle id='N_E_124' type='standard_car' route='N_E' depart='319.0' departLane='random' departSpeed='10' />
    <vehicle id='N_S_125' type='standard_car' route='N_S' depart='321.0' departLane='random' departSpeed='10' />
    <vehicle id='N_E_126' type='standard_car' route='N_E' depart='322.0' departLane='random' departSpeed='10' />
    <vehicle id='S_E_127' type='standard_car' route='S_E' depart='324.0' departLane='random' departSpeed='10' />
    <vehicle id='W_E_128' type='standard_car' route='W_E' depart='329.0' departLane='random' departSpeed='10' />
    <vehicle id='E_W_129' type='standard_car' route='E_W' depart='335.0' departLane='random' departSpeed='10' />
    <vehicle id='W_N_130' type='standard_car' route='W_N' depart='335.0' departLane='random' departSpeed='10' />
    <vehicle id='E_N_131' type='standard_car' route='E_N' depart='335.0' departLane='random' departSpeed='10' />
    <vehicle id='E_N_132' type='standard_car' route='E_N' depart='336.0' departLane='random' departSpeed='10' />
    <vehicle id='S_W_133' type='standard_car' route='S_W' depart='336.0' departLane='random' departSpeed='10' />
    <vehicle id='E_W_134' type='standard_car' route='E_W' depart='337.0' departLane='random' departSpeed='10' />
    <vehicle id='N_S_135' type='standard_car' route='N_S' depart='337.0' departLane='random' departSpeed='10' />
    <vehicle id='W_S_136' type='standard_car' route='W_S' depart='337.0' departLane='random' departSpeed='10' />
    <vehicle id='S_E_137' type='standard_car' route='S_E' depart='338.0' departLane='random' departSpeed='10' />
    <vehicle id='S_N_138' type='standard_car' route='S_N' depart='339.0' departLane='random' departSpeed='10' />
    <vehicle id='W_N_139' type='standard_car' route='W_N' depart='340.0' departLane='random' departSpeed='10' />
    <vehicle id='S_N_140' type='standard_car' route='S_N' depart='340.0' departLane='random' departSpeed='10' />
    <vehicle id='W_S_141' type='standard_car' route='W_S' depart='343.0' departLane='random' departSpeed='10' />
    <vehicle id='N_W_142' type='standard_car' route='N_W' depart='343.0' departLane='random' departSpeed='10' />
    <vehicle id='W_N_143' type='standard_car' route='W_N' depart='345.0' departLane='random' departSpeed='10' />
    <vehicle id='E_W_144' type='standard_car' route='E_W' depart='347.0' departLane='random' departSpeed='10' />
    <vehicle id='S_W_145' type='standard_car' route='S_W' depart='347.0' departLane='random' departSpeed='10' />
    <vehicle id='W_E_146' type='standard_car' route='W_E' depart='348.0' departLane='random' departSpeed='10' />
    <vehicle id='W_N_147' type='standard_car' route='W_N' depart='348.0' departLane='random' departSpeed='10' />
    <vehicle id='E_S_148' type='standard_car' route='E_S' depart='350.0' departLane='random' departSpeed='10' />
    <vehicle id='E_N_149' type='standard_car' route='E_N' depart='354.0' departLane='random' departSpeed='10' />
    <vehicle id='E_N_150' type='standard_car' route='E_N' depart='354.0' departLane='random' departSpeed='10' />
    <vehicle id='W_E_151' type='standard_car' route='W_E' depart='355.0' departLane='random' departSpeed='10' />
    <vehicle id='S_E_152' type='standard_car' route='S_E' depart='356.0' departLane='random' departSpeed='10' />
    <vehicle id='E_W_153' type='standard_car' route='E_W' depart='357.0' departLane='random' departSpeed='10' />
    <vehicle id='W_N_154' type='standard_car' route='W_N' depart='358.0' departLane='random' departSpeed='10' />
    <vehicle id='W_S_155' type='standard_car' route='W_S' depart='359.0' departLane='random' departSpeed='10' />
    <vehicle id='E_W_156' type='standard_car' route='E_W' depart='360.0' departLane='random' departSpeed='10' />
    <vehicle id='S_E_157' type='standard_car' route='S_E' depart='362.0' departLane='random' departSpeed='10' />
    <vehicle id='S_N_158' type='standard_car' route='S_N' depart='363.0' departLane='random' departSpeed='10' />
    <vehicle id='E_S_159' type='standard_car' route='E_S' depart='364.0' departLane='random' departSpeed='10' />
    <vehicle id='E_N_160' type='standard_car' route='E_N' depart='364.0' departLane='random' departSpeed='10' />
    <vehicle id='E_N_161' type='standard_car' route='E_N' depart='365.0' departLane='random' departSpeed='10' />
    <vehicle id='E_S_162' type='standard_car' route='E_S' depart='365.0' departLane='random' departSpeed='10' />
    <vehicle id='S_E_163' type='standard_car' route='S_E' depart='366.0' departLane='random' departSpeed='10' />
    <vehicle id='S_N_164' type='standard_car' route='S_N' depart='368.0' departLane='random' departSpeed='10' />
    <vehicle id='N_E_165' type='standard_car' route='N_E' depart='368.0' departLane='random' departSpeed='10' />
    <vehicle id='S_N_166' type='standard_car' route='S_N' depart='370.0' departLane='random' departSpeed='10' />
    <vehicle id='N_S_167' type='standard_car' route='N_S' depart='371.0' departLane='random' departSpeed='10' />
    <vehicle id='S_N_168' type='standard_car' route='S_N' depart='374.0' departLane='random' departSpeed='10' />
    <vehicle id='N_S_169' type='standard_car' route='N_S' depart='375.0' departLane='random' departSpeed='10' />
    <vehicle id='S_W_170' type='standard_car' route='S_W' depart='376.0' departLane='random' departSpeed='10' />
    <vehicle id='S_W_171' type='standard_car' route='S_W' depart='378.0' departLane='random' departSpeed='10' />
    <vehicle id='N_S_172' type='standard_car' route='N_S' depart='379.0' departLane='random' departSpeed='10' />
    <vehicle id='N_S_173' type='standard_car' route='N_S' depart='380.0' departLane='random' departSpeed='10' />
    <vehicle id='N_E_174' type='standard_car' route='N_E' depart='383.0' departLane='random' departSpeed='10' />
    <vehicle id='S_N_175' type='standard_car' route='S_N' depart='387.0' departLane='random' departSpeed='10' />
    <vehicle id='W_S_176' type='standard_car' route='W_S' depart='388.0' departLane='random' departSpeed='10' />
    <vehicle id='W_E_177' type='standard_car' route='W_E' depart='388.0' departLane='random' departSpeed='10' />
    <vehicle id='S_W_178' type='standard_car' route='S_W' depart='389.0' departLane='random' departSpeed='10' />
    <vehicle id='E_N_179' type='standard_car' route='E_N' depart='390.0' departLane='random' departSpeed='10' />
    <vehicle id='E_N_180' type='standard_car' route='E_N' depart='390.0' departLane='random' departSpeed='10' />
    <vehicle id='E_W_181' type='standard_car' route='E_W' depart='391.0' departLane='random' departSpeed='10' />
    <vehicle id='N_W_182' type='standard_car' route='N_W' depart='392.0' departLane='random' departSpeed='10' />
    <vehicle id='N_E_183' type='standard_car' route='N_E' depart='393.0' departLane='random' departSpeed='10' />
    <vehicle id='E_S_184' type='standard_car' route='E_S' depart='393.0' departLane='random' departSpeed='10' />
    <vehicle id='S_N_185' type='standard_car' route='S_N' depart='394.0' departLane='random' departSpeed='10' />
    <vehicle id='S_N_186' type='standard_car' route='S_N' depart='395.0' departLane='random' departSpeed='10' />
    <vehicle id='W_E_187' type='standard_car' route='W_E' depart='395.0' departLane='random' departSpeed='10' />
    <vehicle id='S_W_188' type='standard_car' route='S_W' depart='396.0' departLane='random' departSpeed='10' />
    <vehicle id='S_N_189' type='standard_car' route='S_N' depart='397.0' departLane='random' departSpeed='10' />
    <vehicle id='S_N_190' type='standard_car' route='S_N' depart='397.0' departLane='random' departSpeed='10' />
    <vehicle id='W_N_191' type='standard_car' route='W_N' depart='397.0' departLane='random' departSpeed='10' />
    <vehicle id='E_W_192' type='standard_car' route='E_W' depart='398.0' departLane='random' departSpeed='10' />
    <vehicle id='E_S_193' type='standard_car' route='E_S' depart='398.0' departLane='random' departSpeed='10' />
    <vehicle id='W_S_194' type='standard_car' route='W_S' depart='399.0' departLane='random' departSpeed='10' />
    <vehicle id='W_S_195' type='standard_car' route='W_S' depart='402.0' departLane='random' departSpeed='10' />
    <vehicle id='W_N_196' type='standard_car' route='W_N' depart='402.0' departLane='random' departSpeed='10' />
    <vehicle id='S_N_197' type='standard_car' route='S_N' depart='405.0' departLane='random' departSpeed='10' />
    <vehicle id='N_W_198' type='standard_car' route='N_W' depart='406.0' departLane='random' departSpeed='10' />
    <vehicle id='N_S_199' type='standard_car' route='N_S' depart='407.0' departLane='random' departSpeed='10' />
    <vehicle id='E_N_200' type='standard_car' route='E_N' depart='409.0' departLane='random' departSpeed='10' />
    <vehicle id='W_E_201' type='standard_car' route='W_E' depart='409.0' departLane='random' departSpeed='10' />
    <vehicle id='N_W_202' type='standard_car' route='N_W' depart='409.0' departLane='random' departSpeed='10' />
    <vehicle id='E_W_203' type='standard_car' route='E_W' depart='411.0' departLane='random' departSpeed='10' />
    <vehicle id='S_W_204' type='standard_car' route='S_W' depart='411.0' departLane='random' departSpeed='10' />
    <vehicle id='N_E_205' type='standard_car' route='N_E' depart='413.0' departLane='random' departSpeed='10' />
    <vehicle id='S_E_206' type='standard_car' route='S_E' depart='414.0' departLane='random' departSpeed='10' />
    <vehicle id='E_W_207' type='standard_car' route='E_W' depart='415.0' departLane='random' departSpeed='10' />
    <vehicle id='S_N_208' type='standard_car' route='S_N' depart='417.0' departLane='random' departSpeed='10' />
    <vehicle id='E_N_209' type='standard_car' route='E_N' depart='418.0' departLane='random' departSpeed='10' />
    <vehicle id='W_E_210' type='standard_car' route='W_E' depart='418.0' departLane='random' departSpeed='10' />
    <vehicle id='E_W_211' type='standard_car' route='E_W' depart='419.0' departLane='random' departSpeed='10' />
    <vehicle id='N_S_212' type='standard_car' route='N_S' depart='419.0' departLane='random' departSpeed='10' />
    <vehicle id='N_S_213' type='standard_car' route='N_S' depart='424.0' departLane='random' departSpeed='10' />
    <vehicle id='W_E_214' type='standard_car' route='W_E' depart='426.0' departLane='random' departSpeed='10' />
    <vehicle id='E_W_215' type='standard_car' route='E_W' depart='426.0' departLane='random' departSpeed='10' />
    <vehicle id='N_E_216' type='standard_car' route='N_E' depart='426.0' departLane='random' departSpeed='10' />
    <vehicle id='W_N_217' type='standard_car' route='W_N' depart='428.0' departLane='random' departSpeed='10' />
    <vehicle id='N_S_218' type='standard_car' route='N_S' depart='429.0' departLane='random' departSpeed='10' />
    <vehicle id='N_E_219' type='standard_car' route='N_E' depart='429.0' departLane='random' departSpeed='10' />
    <vehicle id='S_N_220' type='standard_car' route='S_N' depart='429.0' departLane='random' departSpeed='10' />
    <vehicle id='S_E_221' type='standard_car' route='S_E' depart='430.0' departLane='random' departSpeed='10' />
    <vehicle id='E_W_222' type='standard_car' route='E_W' depart='431.0' departLane='random' departSpeed='10' />
    <vehicle id='N_W_223' type='standard_car' route='N_W' depart='433.0' departLane='random' departSpeed='10' />
    <vehicle id='W_N_224' type='standard_car' route='W_N' depart='435.0' departLane='random' departSpeed='10' />
    <vehicle id='S_W_225' type='standard_car' route='S_W' depart='437.0' departLane='random' departSpeed='10' />
    <vehicle id='S_W_226' type='standard_car' route='S_W' depart='439.0' departLane='random' departSpeed='10' />
    <vehicle id='E_S_227' type='standard_car' route='E_S' depart='439.0' departLane='random' departSpeed='10' />
    <vehicle id='W_E_228' type='standard_car' route='W_E' depart='443.0' departLane='random' departSpeed='10' />
    <vehicle id='S_N_229' type='standard_car' route='S_N' depart='444.0' departLane='random' departSpeed='10' />
    <vehicle id='E_W_230' type='standard_car' route='E_W' depart='445.0' departLane='random' departSpeed='10' />
    <vehicle id='N_S_231' type='standard_car' route='N_S' depart='445.0' departLane='random' departSpeed='10' />
    <vehicle id='W_S_232' type='standard_car' route='W_S' depart='446.0' departLane='random' departSpeed='10' />
    <vehicle id='E_S_233' type='standard_car' route='E_S' depart='447.0' departLane='random' departSpeed='10' />
    <vehicle id='S_W_234' type='standard_car' route='S_W' depart='448.0' departLane='random' departSpeed='10' />
    <vehicle id='S_W_235' type='standard_car' route='S_W' depart='449.0' departLane='random' departSpeed='10' />
    <vehicle id='S_N_236' type='standard_car' route='S_N' depart='450.0' departLane='random' departSpeed='10' />
    <vehicle id='N_W_237' type='standard_car' route='N_W' depart='454.0' departLane='random' departSpeed='10' />
    <vehicle id='E_S_238' type='standard_car' route='E_S' depart='455.0' departLane='random' departSpeed='10' />
    <vehicle id='W_S_239' type='standard_car' route='W_S' depart='456.0' departLane='random' departSpeed='10' />
    <vehicle id='W_N_240' type='standard_car' route='W_N' depart='457.0' departLane='random' departSpeed='10' />
    <vehicle id='E_W_241' type='standard_car' route='E_W' depart='457.0' departLane='random' departSpeed='10' />
    <vehicle id='E_N_242' type='standard_car' route='E_N' depart='458.0' departLane='random' departSpeed='10' />
    <vehicle id='N_S_243' type='standard_car' route='N_S' depart='458.0' departLane='random' departSpeed='10' />
    <vehicle id='S_N_244' type='standard_car' route='S_N' depart='461.0' departLane='random' departSpeed='10' />
    <vehicle id='N_W_245' type='standard_car' route='N_W' depart='462.0' departLane='random' departSpeed='10' />
    <vehicle id='N_S_246' type='standard_car' route='N_S' depart='464.0' departLane='random' departSpeed='10' />
    <vehicle id='W_N_247' type='standard_car' route='W_N' depart='465.0' departLane='random' departSpeed='10' />
    <vehicle id='N_S_248' type='standard_car' route='N_S' depart='465.0' departLane='random' departSpeed='10' />
    <vehicle id='N_E_249' type='standard_car' route='N_E' depart='465.0' departLane='random' departSpeed='10' />
    <vehicle id='W_N_250' type='standard_car' route='W_N' depart='465.0' departLane='random' departSpeed='10' />
    <vehicle id='N_W_251' type='standard_car' route='N_W' depart='466.0' departLane='random' departSpeed='10' />
    <vehicle id='N_W_252' type='standard_car' route='N_W' depart='468.0' departLane='random' departSpeed='10' />
    <vehicle id='W_E_253' type='standard_car' route='W_E' depart='469.0' departLane='random' departSpeed='10' />
    <vehicle id='E_S_254' type='standard_car' route='E_S' depart='469.0' departLane='random' departSpeed='10' />
    <vehicle id='E_W_255' type='standard_car' route='E_W' depart='469.0' departLane='random' departSpeed='10' />
    <vehicle id='S_N_256' type='standard_car' route='S_N' depart='469.0' departLane='random' departSpeed='10' />
    <vehicle id='S_N_257' type='standard_car' route='S_N' depart='470.0' departLane='random' departSpeed='10' />
    <vehicle id='N_W_258' type='standard_car' route='N_W' depart='471.0' departLane='random' departSpeed='10' />
    <vehicle id='W_E_259' type='standard_car' route='W_E' depart='471.0' departLane='random' departSpeed='10' />