<routes>
        <vType id="standard_car" length="3.0" maxSpeed="15" minGap="1.0" accel="1.0" decel="4.0" />
        <route id="N_S" edges="gneE1 -gneE3"/>
        <route id="N_E" edges="gneE1 -gneE0"/>
        <route id="N_W" edges="gneE1 -gneE2"/>
        <route id="S_W" edges="gneE3 -gneE2"/>
        <route id="S_E" edges="gneE3 -gneE0"/>
        <route id="S_N" edges="gneE3 -gneE1"/>
        
        <route id="W_E" edges="gneE2 -gneE0"/>
        <route id="W_N" edges="gneE2 -gneE1"/>
        <route id="W_S" edges="gneE2 -gneE3"/>
        <route id="E_N" edges="gneE0 -gneE1"/>
        <route id="E_S" edges="gneE0 -gneE3"/>
        <route id="E_W" edges="gneE0 -gneE2"/>
        
    <vehicle id='S_W_0' type='standard_car' route='S_W' depart='41.0' departLane='random' departSpeed='10' />
    <vehicle id='W_E_1' type='standard_car' route='W_E' depart='43.0' departLane='random' departSpeed='10' />
    <vehicle id='W_N_2' type='standard_car' route='W_N' depart='50.0' departLane='random' departSpeed='10' />
    <vehicle id='N_E_3' type='standard_car' route='N_E' depart='54.0' departLane='random' departSpeed='10' />
    <vehicle id='S_W_4' type='standard_car' route='S_W' depart='69.0' departLane='random' departSpeed='10' />
    <vehicle id='S_N_5' type='standard_car' route='S_N' depart='72.0' departLane='random' departSpeed='10' />
    <vehicle id='W_E_6' type='standard_car' route='W_E' depart='73.0' departLane='random' departSpeed='10' />
    <vehicle id='N_E_7' type='standard_car' route='N_E' depart='100.0' departLane='random' departSpeed='10' />
    <vehicle id='S_W_8' type='standard_car' route='S_W' depart='113.0' departLane='random' departSpeed='10' />
    <vehicle id='E_W_9' type='standard_car' route='E_W' depart='126.0' departLane='random' departSpeed='10' />
    <vehicle id='N_E_10' type='standard_car' route='N_E' depart='141.0' departLane='random' departSpeed='10' />
    <vehicle id='E_S_11' type='standard_car' route='E_S' depart='142.0' departLane='random' departSpeed='10' />
    <vehicle id='S_W_12' type='standard_car' route='S_W' depart='163.0' departLane='random' departSpeed='10' />
    <vehicle id='S_N_13' type='standard_car' route='S_N' depart='164.0' departLane='random' departSpeed='10' />
    <vehicle id='S_N_14' type='standard_car' route='S_N' depart='165.0' departLane='random' departSpeed='10' />
    <vehicle id='S_W_15' type='standard_car' route='S_W' depart='168.0' departLane='random' departSpeed='10' />
    <vehicle id='E_N_16' type='standard_car' route='E_N' depart='171.0' departLane='random' departSpeed='10' />
    <vehicle id='E_S_17' type='standard_car' route='E_S' depart='171.0' departLane='random' departSpeed='10' />
    <vehicle id='N_S_18' type='standard_car' route='N_S' depart='172.0' departLane='random' departSpeed='10' />
    <vehicle id='S_N_19' type='standard_car' route='S_N' depart='179.0' departLane='random' departSpeed='10' />
    <vehicle id='S_W_20' type='standard_car' route='S_W' depart='181.0' departLane='random' departSpeed='10' />
    <vehicle id='S_W_21' type='standard_car' route='S_W' depart='191.0' departLane='random' departSpeed='10' />
    <vehicle id='S_N_22' type='standard_car' route='S_N' depart='196.0' departLane='random' departSpeed='10' />
    <vehicle id='N_E_23' type='standard_car' route='N_E' depart='197.0' departLane='random' departSpeed='10' />
    <vehicle id='N_E_24' type='standard_car' route='N_E' depart='197.0' departLane='random' departSpeed='10' />
    <vehicle id='E_S_25' type='standard_car' route='E_S' depart='205.0' departLane='random' departSpeed='10' />
    <vehicle id='S_W_26' type='standard_car' route='S_W' depart='216.0' departLane='random' departSpeed='10' />
    <vehicle id='N_E_27' type='standard_car' route='N_E' depart='219.0' departLane='random' departSpeed='10' />
    <vehicle id='E_S_28' type='standard_car' route='E_S' depart='219.0' departLane='random' departSpeed='10' />
    <vehicle id='N_E_29' type='standard_car' route='N_E' depart='232.0' departLane='random' departSpeed='10' />
    <vehicle id='S_W_30' type='standard_car' route='S_W' depart='234.0' departLane='random' departSpeed='10' />
    <vehicle id='S_W_31' type='standard_car' route='S_W' depart='240.0' departLane='random' departSpeed='10' />
    <vehicle id='N_E_32' type='standard_car' route='N_E' depart='240.0' departLane='random' departSpeed='10' />
    <vehicle id='N_W_33' type='standard_car' route='N_W' depart='241.0' departLane='random' departSpeed='10' />
    <vehicle id='N_S_34' type='standard_car' route='N_S' depart='243.0' departLane='random' departSpeed='10' />
    <vehicle id='S_N_35' type='standard_car' route='S_N' depart='251.0' departLane='random' departSpeed='10' />
    <vehicle id='W_E_36' type='standard_car' route='W_E' depart='254.0' departLane='random' departSpeed='10' />
    <vehicle id='E_S_37' type='standard_car' route='E_S' depart='259.0' departLane='random' departSpeed='10' />
    <vehicle id='W_E_38' type='standard_car' route='W_E' depart='262.0' departLane='random' departSpeed='10' />
    <vehicle id='W_N_39' type='standard_car' route='W_N' depart='266.0' departLane='random' departSpeed='10' />
    <vehicle id='W_N_40' type='standard_car' route='W_N' depart='268.0' departLane='random' departSpeed='10' />
    <vehicle id='E_W_41' type='standard_car' route='E_W' depart='269.0' departLane='random' departSpeed='10' />
    <vehicle id='W_E_42' type='standard_car' route='W_E' depart='271.0' departLane='random' departSpeed='10' />
    <vehicle id='N_S_43' type='standard_car' route='N_S' depart='274.0' departLane='random' departSpeed='10' />
    <vehicle id='N_S_44' type='standard_car' route='N_S' depart='276.0' departLane='random' departSpeed='10' />
    <vehicle id='N_S_45' type='standard_car' route='N_S' depart='280.0' departLane='random' departSpeed='10' />
    <vehicle id='S_W_46' type='standard_car' route='S_W' depart='287.0' departLane='random' departSpeed='10' />
    <vehicle id='N_S_47' type='standard_car' route='N_S' depart='289.0' departLane='random' departSpeed='10' />
    <vehicle id='W_N_48' type='standard_car' route='W_N' depart='293.0' departLane='random' departSpeed='10' />
    <vehicle id='N_S_49' type='standard_car' route='N_S' depart='294.0' departLane='random' departSpeed='10' />
    <vehicle id='S_W_50' type='standard_car' route='S_W' depart='297.0' departLane='random' departSpeed='10' />
    <vehicle id='E_S_51' type='standard_car' route='E_S' depart='300.0' departLane='random' departSpeed='10' />
    <vehicle id='E_S_52' type='standard_car' route='E_S' depart='301.0' departLane='random' departSpeed='10' />
    <vehicle id='N_E_53' type='standard_car' route='N_E' depart='302.0' departLane='random' departSpeed='10' />
    <vehicle id='W_N_54' type='standard_car' route='W_N' depart='307.0' departLane='random' departSpeed='10' />
    <vehicle id='W_S_55' type='standard_car' route='W_S' depart='309.0' departLane='random' departSpeed='10' />
    <vehicle id='W_N_56' type='standard_car' route='W_N' depart='311.0' departLane='random' departSpeed='10' />
    <vehicle id='N_S_57' type='standard_car' route='N_S' depart='313.0' departLane='random' departSpeed='10' />
    <vehicle id='W_N_58' type='standard_car' route='W_N' depart='314.0' departLane='random' departSpeed='10' />
    <vehicle id='E_W_59' type='standard_car' route='E_W' depart='320.0' departLane='random' departSpeed='10' />
    <vehicle id='W_S_60' type='standard_car' route='W_S' depart='326.0' departLane='random' departSpeed='10' />
    <vehicle id='E_S_61' type='standard_car' route='E_S' depart='331.0' departLane='random' departSpeed='10' />
    <vehicle id='W_N_62' type='standard_car' route='W_N' depart='334.0' departLane='random' departSpeed='10' />
    <vehicle id='S_W_63' type='standard_car' route='S_W' depart='335.0' departLane='random' departSpeed='10' />
    <vehicle id='S_W_64' type='standard_car' route='S_W' depart='341.0' departLane='random' departSpeed='10' />
    <vehicle id='W_E_65' type='standard_car' route='W_E' depart='343.0' departLane='random' departSpeed='10' />
    <vehicle id='S_E_66' type='standard_car' route='S_E' depart='346.0' departLane='random' departSpeed='10' />
    <vehicle id='S_N_67' type='standard_car' route='S_N' depart='347.0' departLane='random' departSpeed='10' />
    <vehicle id='W_E_68' type='standard_car' route='W_E' depart='347.0' departLane='random' departSpeed='10' />
    <vehicle id='W_N_69' type='standard_car' route='W_N' depart='348.0' departLane='random' departSpeed='10' />
    <vehicle id='W_N_70' type='standard_car' route='W_N' depart='349.0' departLane='random' departSpeed='10' />
    <vehicle id='N_E_71' type='standard_car' route='N_E' depart='349.0' departLane='random' departSpeed='10' />
    <vehicle id='E_W_72' type='standard_car' route='E_W' depart='352.0' departLane='random' departSpeed='10' />
    <vehicle id='E_W_73' type='standard_car' route='E_W' depart='353.0' departLane='random' departSpeed='10' />
    <vehicle id='W_E_74' type='standard_car' route='W_E' depart='359.0' departLane='random' departSpeed='10' />
    <vehicle id='W_S_75' type='standard_car' route='W_S' depart='362.0' departLane='random' departSpeed='10' />
    <vehicle id='E_S_76' type='standard_car' route='E_S' depart='363.0' departLane='random' departSpeed='10' />
    <vehicle id='N_E_77' type='standard_car' route='N_E' depart='363.0' departLane='random' departSpeed='10' />
    <vehicle id='N_E_78' type='standard_car' route='N_E' depart='368.0' departLane='random' departSpeed='10' />
    <vehicle id='W_E_79' type='standard_car' route='W_E' depart='368.0' departLane='random' departSpeed='10' />
    <vehicle id='N_E_80' type='standard_car' route='N_E' depart='374.0' departLane='random' departSpeed='10' />
    <vehicle id='N_W_81' type='standard_car' route='N_W' depart='375.0' departLane='random' departSpeed='10' />
    <vehicle id='E_S_82' type='standard_car' route='E_S' depart='375.0' departLane='random' departSpeed='10' />
    <vehicle id='N_E_83' type='standard_car' route='N_E' depart='379.0' departLane='random' departSpeed='10' />
    <vehicle id='S_N_84' type='standard_car' route='S_N' depart='383.0' departLane='random' departSpeed='10' />
    <vehicle id='N_E_85' type='standard_car' route='N_E' depart='383.0' departLane='random' departSpeed='10' />
    <vehicle id='W_E_86' type='standard_car' route='W_E' depart='386.0' departLane='random' departSpeed='10' />
    <vehicle id='S_E_87' type='standard_car' route='S_E' depart='387.0' departLane='random' departSpeed='10' />
    <vehicle id='N_S_88' type='standard_car' route='N_S' depart='388.0' departLane='random' departSpeed='10' />
    <vehicle id='N_E_89' type='standard_car' route='N_E' depart='392.0' departLane='random' departSpeed='10' />
    <vehicle id='E_S_90' type='standard_car' route='E_S' depart='392.0' departLane='random' departSpeed='10' />
    <vehicle id='N_E_91' type='standard_car' route='N_E' depart='397.0' departLane='random' departSpeed='10' />
    <vehicle id='N_E_92' type='standard_car' route='N_E' depart='399.0' departLane='random' departSpeed='10' />
    <vehicle id='E_N_93' type='standard_car' route='E_N' depart='399.0' departLane='random' departSpeed='10' />
    <vehicle id='S_E_94' type='standard_car' route='S_E' depart='400.0' departLane='random' departSpeed='10' />
    <vehicle id='W_N_95' type='standard_car' route='W_N' depart='401.0' departLane='random' departSpeed='10' />
    <vehicle id='W_E_96' type='standard_car' route='W_E' depart='402.0' departLane='random' departSpeed='10' />
    <vehicle id='N_E_97' type='standard_car' route='N_E' depart='404.0' departLane='random' departSpeed='10' />
    <vehicle id='N_E_98' type='standard_car' route='N_E' depart='405.0' departLane='random' departSpeed='10' />
    <vehicle id='W_N_99' type='standard_car' route='W_N' depart='409.0' departLane='random' departSpeed='10' />
    <vehicle id='E_W_100' type='standard_car' route='E_W' depart='409.0' departLane='random' departSpeed='10' />
    <vehicle id='W_N_101' type='standard_car' route='W_N' depart='412.0' departLane='random' departSpeed='10' />
    <vehicle id='E_W_102' type='standard_car' route='E_W' depart='415.0' departLane='random' departSpeed='10' />
    <vehicle id='W_N_103' type='standard_car' route='W_N' depart='418.0' departLane='random' departSpeed='10' />
    <vehicle id='W_N_104' type='standard_car' route='W_N' depart='422.0' departLane='random' departSpeed='10' />
    <vehicle id='S_N_105' type='standard_car' route='S_N' depart='425.0' departLane='random' departSpeed='10' />
    <vehicle id='S_N_106' type='standard_car' route='S_N' depart='428.0' departLane='random' departSpeed='10' />
    <vehicle id='S_N_107' type='standard_car' route='S_N' depart='429.0' departLane='random' departSpeed='10' />
    <vehicle id='S_W_108' type='standard_car' route='S_W' depart='430.0' departLane='random' departSpeed='10' />
    <vehicle id='N_S_109' type='standard_car' route='N_S' depart='433.0' departLane='random' departSpeed='10' />
    <vehicle id='S_N_110' type='standard_car' route='S_N' depart='434.0' departLane='random' departSpeed='10' />
    <vehicle id='E_S_111' type='standard_car' route='E_S' depart='435.0' departLane='random' departSpeed='10' />
    <vehicle id='N_E_112' type='standard_car' route='N_E' depart='437.0' departLane='random' departSpeed='10' />
    <vehicle id='W_N_113' type='standard_car' route='W_N' depart='437.0' departLane='random' departSpeed='10' />
    <vehicle id='S_W_114' type='standard_car' route='S_W' depart='445.0' departLane='random' departSpeed='10' />
    <vehicle id='N_W_115' type='standard_car' route='N_W' depart='447.0' departLane='random' departSpeed='10' />
    <vehicle id='E_W_116' type='standard_car' route='E_W' depart='451.0' departLane='random' departSpeed='10' />
    <vehicle id='N_E_117' type='standard_car' route='N_E' depart='452.0' departLane='random' departSpeed='10' />
    <vehicle id='E_W_118' type='standard_car' route='E_W' depart='454.0' departLane='random' departSpeed='10' />
    <vehicle id='N_E_119' type='standard_car' route='N_E' depart='454.0' departLane='random' departSpeed='10' />
    <vehicle id='N_S_120' type='standard_car' route='N_S' depart='454.0' departLane='random' departSpeed='10' />
    <vehicle id='W_E_121' type='standard_car' route='W_E' depart='455.0' departLane='random' departSpeed='10' />
    <vehicle id='W_E_122' type='standard_car' route='W_E' depart='456.0' departLane='random' departSpeed='10' />
    <vehicle id='N_S_123' type='standard_car' route='N_S' depart='456.0' departLane='random' departSpeed='10' />
    <vehicle id='W_N_124' type='standard_car' route='W_N' depart='458.0' departLane='random' departSpeed='10' />
    <vehicle id='E_S_125' type='standard_car' route='E_S' depart='461.0' departLane='random' departSpeed='10' />
    <vehicle id='E_S_126' type='standard_car' route='E_S' depart='461.0' departLane='random' departSpeed='10' />
    <vehicle id='E_W_127' type='standard_car' route='E_W' depart='462.0' departLane='random' departSpeed='10' />
    <vehicle id='S_N_128' type='standard_car' route='S_N' depart='463.0' departLane='random' departSpeed='10' />
    <vehicle id='N_S_129' type='standard_car' route='N_S' depart='468.0' departLane='random' departSpeed='10' />
    <vehicle id='N_S_130' type='standard_car' route='N_S' depart='470.0' departLane='random' departSpeed='10' />
    <vehicle id='N_E_131' type='standard_car' route='N_E' depart='472.0' departLane='random' departSpeed='10' />
    <vehicle id='N_S_132' type='standard_car' route='N_S' depart='473.0' departLane='random' departSpeed='10' />
    <vehicle id='N_W_133' type='standard_car' route='N_W' depart='473.0' departLane='random' departSpeed='10' />
    <vehicle id='N_E_134' type='standard_car' route='N_E' depart='474.0' departLane='random' departSpeed='10' />
    <vehicle id='N_E_135' type='standard_car' route='N_E' depart='483.0' departLane='random' departSpeed='10' />
    <vehicle id='W_N_136' type='standard_car' route='W_N' depart='484.0' departLane='random' departSpeed='10' />
    <vehicle id='N_E_137' type='standard_car' route='N_E' depart='486.0' departLane='random' departSpeed='10' />
    <vehicle id='W_E_138' type='standard_car' route='W_E' depart='486.0' departLane='random' departSpeed='10' />
    <vehicle id='S_N_139' type='standard_car' route='S_N' depart='488.0' departLane='random' departSpeed='10' />
    <vehicle id='N_E_140' type='standard_car' route='N_E' depart='489.0' departLane='random' departSpeed='10' />
    <vehicle id='S_W_141' type='standard_car' route='S_W' depart='493.0' departLane='random' departSpeed='10' />
    <vehicle id='W_E_142' type='standard_car' route='W_E' depart='493.0' departLane='random' departSpeed='10' />
    <vehicle id='S_N_143' type='standard_car' route='S_N' depart='495.0' departLane='random' departSpeed='10' />
    <vehicle id='N_S_144' type='standard_car' route='N_S' depart='497.0' departLane='random' departSpeed='10' />
    <vehicle id='N_E_145' type='standard_car' route='N_E' depart='500.0' departLane='random' departSpeed='10' />
    <vehicle id='S_W_146' type='standard_car' route='S_W' depart='505.0' departLane='random' departSpeed='10' />
    <vehicle id='E_S_147' type='standard_car' route='E_S' depart='505.0' departLane='random' departSpeed='10' />
    <vehicle id='S_N_148' type='standard_car' route='S_N' depart='505.0' departLane='random' departSpeed='10' />
    <vehicle id='E_W_149' type='standard_car' route='E_W' depart='506.0' departLane='random' departSpeed='10' />
    <vehicle id='S_W_150' type='standard_car' route='S_W' depart='508.0' departLane='random' departSpeed='10' />
    <vehicle id='S_W_151' type='standard_car' route='S_W' depart='508.0' departLane='random' departSpeed='10' />
    <vehicle id='E_S_152' type='standard_car' route='E_S' depart='508.0' departLane='random' departSpeed='10' />
    <vehicle id='N_E_153' type='standard_car' route='N_E' depart='514.0' departLane='random' departSpeed='10' />
    <vehicle id='N_E_154' type='standard_car' route='N_E' depart='515.0' departLane='random' departSpeed='10' />
    <vehicle id='N_E_155' type='standard_car' route='N_E' depart='516.0' departLane='random' departSpeed='10' />
    <vehicle id='S_N_156' type='standard_car' route='S_N' depart='516.0' departLane='random' departSpeed='10' />
    <vehicle id='W_N_157' type='standard_car' route='W_N' depart='518.0' departLane='random' departSpeed='10' />
    <vehicle id='S_N_158' type='standard_car' route='S_N' depart='518.0' departLane='random' departSpeed='10' />
    <vehicle id='S_W_159' type='standard_car' route='S_W' depart='525.0' departLane='random' departSpeed='10' />
    <vehicle id='W_S_160' type='standard_car' route='W_S' depart='530.0' departLane='random' departSpeed='10' />
    <vehicle id='W_N_161' type='standard_car' route='W_N' depart='531.0' departLane='random' departSpeed='10' />
    <vehicle id='N_S_162' type='standard_car' route='N_S' depart='531.0' departLane='random' departSpeed='10' />
    <vehicle id='S_W_163' type='standard_car' route='S_W' depart='532.0' departLane='random' departSpeed='10' />
    <vehicle id='N_E_164' type='standard_car' route='N_E' depart='532.0' departLane='random' departSpeed='10' />
    <vehicle id='W_S_165' type='standard_car' route='W_S' depart='537.0' departLane='random' departSpeed='10' />
    <vehicle id='E_S_166' type='standard_car' route='E_S' depart='539.0' departLane='random' departSpeed='10' />
    <vehicle id='E_W_167' type='standard_car' route='E_W' depart='540.0' departLane='random' departSpeed='10' />
    <vehicle id='N_W_168' type='standard_car' route='N_W' depart='542.0' departLane='random' departSpeed='10' />
    <vehicle id='W_N_169' type='standard_car' route='W_N' depart='543.0' departLane='random' departSpeed='10' />
    <vehicle id='E_S_170' type='standard_car' route='E_S' depart='544.0' departLane='random' departSpeed='10' />
    <vehicle id='S_N_171' type='standard_car' route='S_N' depart='545.0' departLane='random' departSpeed='10' />
    <vehicle id='E_W_172' type='standard_car' route='E_W' depart='548.0' departLane='random' departSpeed='10' />
    <vehicle id='S_N_173' type='standard_car' route='S_N' depart='553.0' departLane='random' departSpeed='10' />
    <vehicle id='N_E_174' type='standard_car' route='N_E' depart='554.0' departLane='random' departSpeed='10' />
    <vehicle id='S_N_175' type='standard_car' route='S_N' depart='554.0' departLane='random' departSpeed='10' />
    <vehicle id='W_E_176' type='standard_car' route='W_E' depart='555.0' departLane='random' departSpeed='10' />
    <vehicle id='S_N_177' type='standard_car' route='S_N' depart='557.0' departLane='random' departSpeed='10' />
    <vehicle id='E_W_178' type='standard_car' route='E_W' depart='557.0' departLane='random' departSpeed='10' />
    <vehicle id='E_N_179' type='standard_car' route='E_N' depart='559.0' departLane='random' departSpeed='10' />
    <vehicle id='E_S_180' type='standard_car' route='E_S' depart='560.0' departLane='random' departSpeed='10' />
    <vehicle id='E_N_181' type='standard_car' route='E_N' depart='561.0' departLane='random' departSpeed='10' />
    <vehicle id='E_S_182' type='standard_car' route='E_S' depart='561.0' departLane='random' departSpeed='10' />
    <vehicle id='S_N_183' type='standard_car' route='S_N' depart='564.0' departLane='random' departSpeed='10' />
    <vehicle id='S_W_184' type='standard_car' route='S_W' depart='568.0' departLane='random' departSpeed='10' />
    <vehicle id='S_N_185' type='standard_car' route='S_N' depart='569.0' departLane='random' departSpeed='10' />
    <vehicle id='W_N_186' type='standard_car' route='W_N' depart='570.0' departLane='random' departSpeed='10' />
    <vehicle id='W_E_187' type='standard_car' route='W_E' depart='572.0' departLane='random' departSpeed='10' />
    <vehicle id='S_N_188' type='standard_car' route='S_N' depart='575.0' departLane='random' departSpeed='10' />
    <vehicle id='N_E_189' type='standard_car' route='N_E' depart='576.0' departLane='random' departSpeed='10' />
    <vehicle id='E_W_190' type='standard_car' route='E_W' depart='579.0' departLane='random' departSpeed='10' />
    <vehicle id='E_W_191' type='standard_car' route='E_W' depart='580.0' departLane='random' departSpeed='10' />
    <vehicle id='S_W_192' type='standard_car' route='S_W' depart='581.0' departLane='random' departSpeed='10' />
    <vehicle id='W_N_193' type='standard_car' route='W_N' depart='584.0' departLane='random' departSpeed='10' />
    <vehicle id='N_E_194' type='standard_car' route='N_E' depart='585.0' departLane='random' departSpeed='10' />
    <vehicle id='E_S_195' type='standard_car' route='E_S' depart='586.0' departLane='random' departSpeed='10' />
    <vehicle id='W_E_196' type='standard_car' route='W_E' depart='586.0' departLane='random' departSpeed='10' />
    <vehicle id='N_S_197' type='standard_car' route='N_S' depart='587.0' departLane='random' departSpeed='10' />
    <vehicle id='N_E_198' type='standard_car' route='N_E' depart='589.0' departLane='random' departSpeed='10' />
    <vehicle id='W_E_199' type='standard_car' route='W_E' depart='589.0' departLane='random' departSpeed='10' />
    <vehicle id='E_S_200' type='standard_car' route='E_S' depart='590.0' departLane='random' departSpeed='10' />
    <vehicle id='S_N_201' type='standard_car' route='S_N' depart='590.0' departLane='random' departSpeed='10' />
    <vehicle id='N_E_202' type='standard_car' route='N_E' depart='593.0' departLane='random' departSpeed='10' />
    <vehicle id='N_W_203' type='standard_car' route='N_W' depart='596.0' departLane='random' departSpeed='10' />
    <vehicle id='E_S_204' type='standard_car' route='E_S' depart='598.0' departLane='random' departSpeed='10' />
    <vehicle id='N_S_205' type='standard_car' route='N_S' depart='600.0' departLane='random' departSpeed='10' />
    <vehicle id='W_E_206' type='standard_car' route='W_E' depart='603.0' departLane='random' departSpeed='10' />
    <vehicle id='S_N_207' type='standard_car' route='S_N' depart='608.0' departLane='random' departSpeed='10' />
    <vehicle id='N_E_208' type='standard_car' route='N_E' depart='610.0' departLane='random' departSpeed='10' />
    <vehicle id='S_E_209' type='standard_car' route='S_E' depart='613.0' departLane='random' departSpeed='10' />
    <vehicle id='W_N_210' type='standard_car' route='W_N' depart='621.0' departLane='random' departSpeed='10' />
    <vehicle id='E_S_211' type='standard_car' route='E_S' depart='623.0' departLane='random' departSpeed='10' />
    <vehicle id='N_S_212' type='standard_car' route='N_S' depart='626.0' departLane='random' departSpeed='10' />
    <vehicle id='W_N_213' type='standard_car' route='W_N' depart='627.0' departLane='random' departSpeed='10' />
    <vehicle id='E_N_214' type='standard_car' route='E_N' depart='627.0' departLane='random' departSpeed='10' />
    <vehicle id='E_W_215' type='standard_car' route='E_W' depart='629.0' departLane='random' departSpeed='10' />
    <vehicle id='N_E_216' type='standard_car' route='N_E' depart='629.0' departLane='random' departSpeed='10' />
    <vehicle id='N_W_217' type='standard_car' route='N_W' depart='630.0' departLane='random' departSpeed='10' />
    <vehicle id='S_W_218' type='standard_car' route='S_W' depart='634.0' departLane='random' departSpeed='10' />
    <vehicle id='E_N_219' type='standard_car' route='E_N' depart='637.0' departLane='random' departSpeed='10' />
    <vehicle id='E_S_220' type='standard_car' route='E_S' depart='638.0' departLane='random' departSpeed='10' />
    <vehicle id='W_E_221' type='standard_car' route='W_E' depart='640.0' departLane='random' departSpeed='10' />
    <vehicle id='W_N_222' type='standard_car' route='W_N' depart='640.0' departLane='random' departSpeed='10' />
    <vehicle id='S_W_223' type='standard_car' route='S_W' depart='646.0' departLane='random' departSpeed='10' />
    <vehicle id='W_N_224' type='standard_car' route='W_N' depart='647.0' departLane='random' departSpeed='10' />
    <vehicle id='S_E_225' type='standard_car' route='S_E' depart='647.0' departLane='random' departSpeed='10' />
    <vehicle id='N_S_226' type='standard_car' route='N_S' depart='648.0' departLane='random' departSpeed='10' />
    <vehicle id='E_S_227' type='standard_car' route='E_S' depart='648.0' departLane='random' departSpeed='10' />
    <vehicle id='E_W_228' type='standard_car' route='E_W' depart='648.0' departLane='random' departSpeed='10' />
    <vehicle id='W_E_229' type='standard_car' route='W_E' depart='651.0' departLane='random' departSpeed='10' />
    <vehicle id='N_E_230' type='standard_car' route='N_E' depart='657.0' departLane='random' departSpeed='10' />
    <vehicle id='E_W_231' type='standard_car' route='E_W' depart='662.0' departLane='random' departSpeed='10' />
    <vehicle id='E_W_232' type='standard_car' route='E_W' depart='663.0' departLane='random' departSpeed='10' />
    <vehicle id='N_W_233' type='standard_car' route='N_W' depart='666.0' departLane='random' departSpeed='10' />
    <vehicle id='E_S_234' type='standard_car' route='E_S' depart='668.0' departLane='random' departSpeed='10' />
    <vehicle id='N_W_235' type='standard_car' route='N_W' depart='670.0' departLane='random' departSpeed='10' />
    <vehicle id='E_S_236' type='standard_car' route='E_S' depart='670.0' departLane='random' departSpeed='10' />
    <vehicle id='N_E_237' type='standard_car' route='N_E' depart='671.0' departLane='random' departSpeed='10' />
    <vehicle id='N_W_238' type='standard_car' route='N_W' depart='673.0' departLane='random' departSpeed='10' />
    <vehicle id='S_N_239' type='standard_car' route='S_N' depart='676.0' departLane='random' departSpeed='10' />
    <vehicle id='N_E_240' type='standard_car' route='N_E' depart='676.0' departLane='random' departSpeed='10' />
    <vehicle id='N_W_241' type='standard_car' route='N_W' depart='677.0' departLane='random' departSpeed='10' />
    <vehicle id='W_S_242' type='standard_car' route='W_S' depart='680.0' departLane='random' departSpeed='10' />
    <vehicle id='S_W_243' type='standard_car' route='S_W' depart='681.0' departLane='random' departSpeed='10' />
    <vehicle id='E_S_244' type='standard_car' route='E_S' depart='682.0' departLane='random' departSpeed='10' />
    <vehicle id='E_W_245' type='standard_car' route='E_W' depart='685.0' departLane='random' departSpeed='10' />
    <vehicle id='N_S_246' type='standard_car' route='N_S' depart='685.0' departLane='random' departSpeed='10' />
    <vehicle id='S_N_247' type='standard_car' route='S_N' depart='687.0' departLane='random' departSpeed='10' />
    <vehicle id='W_N_248' type='standard_car' route='W_N' depart='688.0' departLane='random' departSpeed='10' />
    <vehicle id='N_W_249' type='standard_car' route='N_W' depart='689.0' departLane='random' departSpeed='10' />
    <vehicle id='W_E_250' type='standard_car' route='W_E' depart='690.0' departLane='random' departSpeed='10' />
    <vehicle id='W_N_251' type='standard_car' route='W_N' depart='696.0' departLane='random' departSpeed='10' />
    <vehicle id='E_S_252' type='standard_car' route='E_S' depart='697.0' departLane='random' departSpeed='10' />
    <vehicle id='N_S_253' type='standard_car' route='N_S' depart='697.0' departLane='random' departSpeed='10' />
    <vehicle id='E_W_254' type='standard_car' route='E_W' depart='697.0' departLane='random' departSpeed='10' />
    <vehicle id='S_W_255' type='standard_car' route='S_W' depart='697.0' departLane='random' departSpeed='10' />
    <vehicle id='S_W_256' type='standard_car' route='S_W' depart='699.0' departLane='random' departSpeed='10' />
    <vehicle id='N_W_257' type='standard_car' route='N_W' depart='700.0' departLane='random' departSpeed='10' />
    <vehicle id='W_N_258' type='standard_car' route='W_N' depart='701.0' departLane='random' departSpeed='10' />
    <vehicle id='E_S_259' type='standard_car' route='E_S' depart='701.0' departLane='random' departSpeed='10' />