<routes>
        <vType id="standard_car" length="3.0" maxSpeed="15" minGap="1.0" accel="1.0" decel="4.0" />
        <route id="N_S" edges="gneE1 -gneE3"/>
        <route id="N_E" edges="gneE1 -gneE0"/>
        <route id="N_W" edges="gneE1 -gneE2"/>
        <route id="S_W" edges="gneE3 -gneE2"/>
        <route id="S_E" edges="gneE3 -gneE0"/>
        <route id="S_N" edges="gneE3 -gneE1"/>
        
        <route id="W_E" edges="gneE2 -gneE0"/>
        <route id="W_N" edges="gneE2 -gneE1"/>
        <route id="W_S" edges="gneE2 -gneE3"/>
        <route id="E_N" edges="gneE0 -gneE1"/>
        <route id="E_S" edges="gneE0 -gneE3"/>
        <route id="E_W" edges="gneE0 -gneE2"/>
        
    <vehicle id='S_W_0' type='standard_car' route='S_W' depart='87.0' departLane='random' departSpeed='10' />
    <vehicle id='N_S_1' type='standard_car' route='N_S' depart='124.0' departLane='random' departSpeed='10' />
    <vehicle id='N_E_2' type='standard_car' route='N_E' depart='133.0' departLane='random' departSpeed='10' />
    <vehicle id='N_S_3' type='standard_car' route='N_S' depart='142.0' departLane='random' departSpeed='10' />
    <vehicle id='N_S_4' type='standard_car' route='N_S' depart='151.0' departLane='random' departSpeed='10' />
    <vehicle id='S_W_5' type='standard_car' route='S_W' depart='182.0' departLane='random' departSpeed='10' />
    <vehicle id='S_W_6' type='standard_car' route='S_W' depart='186.0' departLane='random' departSpeed='10' />
    <vehicle id='W_N_7' type='standard_car' route='W_N' depart='191.0' departLane='random' departSpeed='10' />
    <vehicle id='W_N_8' type='standard_car' route='W_N' depart='191.0' departLane='random' departSpeed='10' />
    <vehicle id='N_S_9' type='standard_car' route='N_S' depart='192.0' departLane='random' departSpeed='10' />
    <vehicle id='W_E_10' type='standard_car' route='W_E' depart='193.0' departLane='random' departSpeed='10' />
    <vehicle id='N_S_11' type='standard_car' route='N_S' depart='230.0' departLane='random' departSpeed='10' />
    <vehicle id='E_W_12' type='standard_car' route='E_W' depart='244.0' departLane='random' departSpeed='10' />
    <vehicle id='N_E_13' type='standard_car' route='N_E' depart='248.0' departLane='random' departSpeed='10' />
    <vehicle id='W_N_14' type='standard_car' route='W_N' depart='256.0' departLane='random' departSpeed='10' />
    <vehicle id='N_E_15' type='standard_car' route='N_E' depart='257.0' departLane='random' departSpeed='10' />
    <vehicle id='W_E_16' type='standard_car' route='W_E' depart='259.0' departLane='random' departSpeed='10' />
    <vehicle id='W_N_17' type='standard_car' route='W_N' depart='271.0' departLane='random' departSpeed='10' />
    <vehicle id='W_E_18' type='standard_car' route='W_E' depart='283.0' departLane='random' departSpeed='10' />
    <vehicle id='S_N_19' type='standard_car' route='S_N' depart='298.0' departLane='random' departSpeed='10' />
    <vehicle id='E_S_20' type='standard_car' route='E_S' depart='302.0' departLane='random' departSpeed='10' />
    <vehicle id='W_N_21' type='standard_car' route='W_N' depart='303.0' departLane='random' departSpeed='10' />
    <vehicle id='N_S_22' type='standard_car' route='N_S' depart='303.0' departLane='random' departSpeed='10' />
    <vehicle id='N_S_23' type='standard_car' route='N_S' depart='306.0' departLane='random' departSpeed='10' />
    <vehicle id='N_S_24' type='standard_car' route='N_S' depart='309.0' departLane='random' departSpeed='10' />
    <vehicle id='N_W_25' type='standard_car' route='N_W' depart='310.0' departLane='random' departSpeed='10' />
    <vehicle id='S_W_26' type='standard_car' route='S_W' depart='316.0' departLane='random' departSpeed='10' />
    <vehicle id='S_W_27' type='standard_car' route='S_W' depart='317.0' departLane='random' departSpeed='10' />
    <vehicle id='W_N_28' type='standard_car' route='W_N' depart='335.0' departLane='random' departSpeed='10' />
    <vehicle id='W_E_29' type='standard_car' route='W_E' depart='335.0' departLane='random' departSpeed='10' />
    <vehicle id='W_N_30' type='standard_car' route='W_N' depart='337.0' departLane='random' departSpeed='10' />
    <vehicle id='S_N_31' type='standard_car' route='S_N' depart='340.0' departLane='random' departSpeed='10' />
    <vehicle id='W_E_32' type='standard_car' route='W_E' depart='345.0' departLane='random' departSpeed='10' />
    <vehicle id='W_N_33' type='standard_car' route='W_N' depart='347.0' departLane='random' departSpeed='10' />
    <vehicle id='E_S_34' type='standard_car' route='E_S' depart='362.0' departLane='random' departSpeed='10' />
    <vehicle id='N_S_35' type='standard_car' route='N_S' depart='366.0' departLane='random' departSpeed='10' />
    <vehicle id='E_W_36' type='standard_car' route='E_W' depart='367.0' departLane='random' departSpeed='10' />
    <vehicle id='N_E_37' type='standard_car' route='N_E' depart='369.0' departLane='random' departSpeed='10' />
    <vehicle id='E_W_38' type='standard_car' route='E_W' depart='376.0' departLane='random' departSpeed='10' />
    <vehicle id='S_N_39' type='standard_car' route='S_N' depart='387.0' departLane='random' departSpeed='10' />
    <vehicle id='E_S_40' type='standard_car' route='E_S' depart='389.0' departLane='random' departSpeed='10' />
    <vehicle id='N_S_41' type='standard_car' route='N_S' depart='393.0' departLane='random' departSpeed='10' />
    <vehicle id='E_W_42' type='standard_car' route='E_W' depart='406.0' departLane='random' departSpeed='10' />
    <vehicle id='E_W_43' type='standard_car' route='E_W' depart='408.0' departLane='random' departSpeed='10' />
    <vehicle id='E_W_44' type='standard_car' route='E_W' depart='409.0' departLane='random' departSpeed='10' />
    <vehicle id='E_W_45' type='standard_car' route='E_W' depart='415.0' departLane='random' departSpeed='10' />
    <vehicle id='W_N_46' type='standard_car' route='W_N' depart='416.0' departLane='random' departSpeed='10' />
    <vehicle id='W_S_47' type='standard_car' route='W_S' depart='438.0' departLane='random' departSpeed='10' />
    <vehicle id='N_E_48' type='standard_car' route='N_E' depart='446.0' departLane='random' departSpeed='10' />
    <vehicle id='W_S_49' type='standard_car' route='W_S' depart='449.0' departLane='random' departSpeed='10' />
    <vehicle id='W_N_50' type='standard_car' route='W_N' depart='451.0' departLane='random' departSpeed='10' />
    <vehicle id='E_S_51' type='standard_car' route='E_S' depart='455.0' departLane='random' departSpeed='10' />
    <vehicle id='W_N_52' type='standard_car' route='W_N' depart='461.0' departLane='random' departSpeed='10' />
    <vehicle id='W_N_53' type='standard_car' route='W_N' depart='469.0' departLane='random' departSpeed='10' />
    <vehicle id='N_S_54' type='standard_car' route='N_S' depart='473.0' departLane='random' departSpeed='10' />
    <vehicle id='S_N_55' type='standard_car' route='S_N' depart='474.0' departLane='random' departSpeed='10' />
    <vehicle id='E_S_56' type='standard_car' route='E_S' depart='477.0' departLane='random' departSpeed='10' />
    <vehicle id='E_W_57' type='standard_car' route='E_W' depart='480.0' departLane='random' departSpeed='10' />
    <vehicle id='W_N_58' type='standard_car' route='W_N' depart='486.0' departLane='random' departSpeed='10' />
    <vehicle id='W_N_59' type='standard_car' route='W_N' depart='488.0' departLane='random' departSpeed='10' />
    <vehicle id='E_S_60' type='standard_car' route='E_S' depart='492.0' departLane='random' departSpeed='10' />
    <vehicle id='N_E_61' type='standard_car' route='N_E' depart='506.0' departLane='random' departSpeed='10' />
    <vehicle id='E_N_62' type='standard_car' route='E_N' depart='510.0' departLane='random' departSpeed='10' />
    <vehicle id='W_S_63' type='standard_car' route='W_S' depart='528.0' departLane='random' departSpeed='10' />
    <vehicle id='W_E_64' type='standard_car' route='W_E' depart='545.0' departLane='random' departSpeed='10' />
    <vehicle id='N_E_65' type='standard_car' route='N_E' depart='546.0' departLane='random' departSpeed='10' />
    <vehicle id='W_N_66' type='standard_car' route='W_N' depart='547.0' departLane='random' departSpeed='10' />
    <vehicle id='W_E_67' type='standard_car' route='W_E' depart='555.0' departLane='random' departSpeed='10' />
    <vehicle id='E_W_68' type='standard_car' route='E_W' depart='561.0' departLane='random' departSpeed='10' />
    <vehicle id='W_E_69' type='standard_car' route='W_E' depart='568.0' departLane='random' departSpeed='10' />
    <vehicle id='E_W_70' type='standard_car' route='E_W' depart='568.0' departLane='random' departSpeed='10' />
    <vehicle id='N_E_71' type='standard_car' route='N_E' depart='574.0' departLane='random' departSpeed='10' />
    <vehicle id='W_N_72' type='standard_car' route='W_N' depart='582.0' departLane='random' departSpeed='10' />
    <vehicle id='N_E_73' type='standard_car' route='N_E' depart='588.0' departLane='random' departSpeed='10' />
    <vehicle id='E_W_74' type='standard_car' route='E_W' depart='590.0' departLane='random' departSpeed='10' />
    <vehicle id='S_W_75' type='standard_car' route='S_W' depart='591.0' departLane='random' departSpeed='10' />
    <vehicle id='E_W_76' type='standard_car' route='E_W' depart='594.0' departLane='random' departSpeed='10' />
    <vehicle id='E_N_77' type='standard_car' route='E_N' depart='595.0' departLane='random' departSpeed='10' />
    <vehicle id='S_W_78' type='standard_car' route='S_W' depart='599.0' departLane='random' departSpeed='10' />
    <vehicle id='E_W_79' type='standard_car' route='E_W' depart='602.0' departLane='random' departSpeed='10' />
    <vehicle id='S_E_80' type='standard_car' route='S_E' depart='608.0' departLane='random' departSpeed='10' />
    <vehicle id='W_E_81' type='standard_car' route='W_E' depart='610.0' departLane='random' departSpeed='10' />
    <vehicle id='W_E_82' type='standard_car' route='W_E' depart='610.0' departLane='random' departSpeed='10' />
    <vehicle id='W_N_83' type='standard_car' route='W_N' depart='611.0' departLane='random' departSpeed='10' />
    <vehicle id='S_N_84' type='standard_car' route='S_N' depart='615.0' departLane='random' departSpeed='10' />
    <vehicle id='N_S_85' type='standard_car' route='N_S' depart='619.0' departLane='random' departSpeed='10' />
    <vehicle id='E_S_86' type='standard_car' route='E_S' depart='625.0' departLane='random' departSpeed='10' />
    <vehicle id='S_W_87' type='standard_car' route='S_W' depart='628.0' departLane='random' departSpeed='10' />
    <vehicle id='S_E_88' type='standard_car' route='S_E' depart='631.0' departLane='random' departSpeed='10' />
    <vehicle id='S_W_89' type='standard_car' route='S_W' depart='638.0' departLane='random' departSpeed='10' />
    <vehicle id='N_S_90' type='standard_car' route='N_S' depart='641.0' departLane='random' departSpeed='10' />
    <vehicle id='W_S_91' type='standard_car' route='W_S' depart='646.0' departLane='random' departSpeed='10' />
    <vehicle id='N_E_92' type='standard_car' route='N_E' depart='649.0' departLane='random' departSpeed='10' />
    <vehicle id='W_E_93' type='standard_car' route='W_E' depart='654.0' departLane='random' departSpeed='10' />
    <vehicle id='W_N_94' type='standard_car' route='W_N' depart='658.0' departLane='random' departSpeed='10' />
    <vehicle id='W_N_95' type='standard_car' route='W_N' depart='658.0' departLane='random' departSpeed='10' />
    <vehicle id='W_E_96' type='standard_car' route='W_E' depart='662.0' departLane='random' departSpeed='10' />
    <vehicle id='N_S_97' type='standard_car' route='N_S' depart='670.0' departLane='random' departSpeed='10' />
    <vehicle id='S_W_98' type='standard_car' route='S_W' depart='671.0' departLane='random' departSpeed='10' />
    <vehicle id='S_W_99' type='standard_car' route='S_W' depart='674.0' departLane='random' departSpeed='10' />
    <vehicle id='S_W_100' type='standard_car' route='S_W' depart='681.0' departLane='random' departSpeed='10' />
    <vehicle id='N_S_101' type='standard_car' route='N_S' depart='682.0' departLane='random' departSpeed='10' />
    <vehicle id='E_W_102' type='standard_car' route='E_W' depart='684.0' departLane='random' departSpeed='10' />
    <vehicle id='W_N_103' type='standard_car' route='W_N' depart='693.0' departLane='random' departSpeed='10' />
    <vehicle id='W_N_104' type='standard_car' route='W_N' depart='698.0' departLane='random' departSpeed='10' />
    <vehicle id='N_S_105' type='standard_car' route='N_S' depart='698.0' departLane='random' departSpeed='10' />
    <vehicle id='S_E_106' type='standard_car' route='S_E' depart='701.0' departLane='random' departSpeed='10' />
    <vehicle id='S_W_107' type='standard_car' route='S_W' depart='703.0' departLane='random' departSpeed='10' />
    <vehicle id='N_E_108' type='standard_car' route='N_E' depart='712.0' departLane='random' departSpeed='10' />
    <vehicle id='N_S_109' type='standard_car' route='N_S' depart='712.0' departLane='random' departSpeed='10' />
    <vehicle id='E_S_110' type='standard_car' route='E_S' depart='719.0' departLane='random' departSpeed='10' />
    <vehicle id='W_N_111' type='standard_car' route='W_N' depart='725.0' departLane='random' departSpeed='10' />
    <vehicle id='N_S_112' type='standard_car' route='N_S' depart='725.0' departLane='random' departSpeed='10' />
    <vehicle id='S_N_113' type='standard_car' route='S_N' depart='733.0' departLane='random' departSpeed='10' />
    <vehicle id='E_S_114' type='standard_car' route='E_S' depart='736.0' departLane='random' departSpeed='10' />
    <vehicle id='E_S_115' type='standard_car' route='E_S' depart='736.0' departLane='random' departSpeed='10' />
    <vehicle id='E_N_116' type='standard_car' route='E_N' depart='740.0' departLane='random' departSpeed='10' />
    <vehicle id='W_E_117' type='standard_car' route='W_E' depart='746.0' departLane='random' departSpeed='10' />
    <vehicle id='E_S_118' type='standard_car' route='E_S' depart='750.0' departLane='random' departSpeed='10' />
    <vehicle id='E_W_119' type='standard_car' route='E_W' depart='752.0' departLane='random' departSpeed='10' />
    <vehicle id='W_N_120' type='standard_car' route='W_N' depart='754.0' departLane='random' departSpeed='10' />
    <vehicle id='E_S_121' type='standard_car' route='E_S' depart='754.0' departLane='random' departSpeed='10' />
    <vehicle id='N_E_122' type='standard_car' route='N_E' depart='754.0' departLane='random' departSpeed='10' />
    <vehicle id='W_N_123' type='standard_car' route='W_N' depart='754.0' departLane='random' departSpeed='10' />
    <vehicle id='W_E_124' type='standard_car' route='W_E' depart='755.0' departLane='random' departSpeed='10' />
    <vehicle id='E_S_125' type='standard_car' route='E_S' depart='767.0' departLane='random' departSpeed='10' />
    <vehicle id='N_W_126' type='standard_car' route='N_W' depart='767.0' departLane='random' departSpeed='10' />
    <vehicle id='N_E_127' type='standard_car' route='N_E' depart='768.0' departLane='random' departSpeed='10' />
    <vehicle id='N_S_128' type='standard_car' route='N_S' depart='776.0' departLane='random' departSpeed='10' />
    <vehicle id='N_E_129' type='standard_car' route='N_E' depart='781.0' departLane='random' departSpeed='10' />
    <vehicle id='E_W_130' type='standard_car' route='E_W' depart='784.0' departLane='random' departSpeed='10' />
    <vehicle id='S_N_131' type='standard_car' route='S_N' depart='786.0' departLane='random' departSpeed='10' />
    <vehicle id='E_S_132' type='standard_car' route='E_S' depart='788.0' departLane='random' departSpeed='10' />
    <vehicle id='N_E_133' type='standard_car' route='N_E' depart='789.0' departLane='random' departSpeed='10' />
    <vehicle id='W_N_134' type='standard_car' route='W_N' depart='794.0' departLane='random' departSpeed='10' />
    <vehicle id='N_E_135' type='standard_car' route='N_E' depart='800.0' departLane='random' departSpeed='10' />
    <vehicle id='W_S_136' type='standard_car' route='W_S' depart='802.0' departLane='random' departSpeed='10' />
    <vehicle id='W_E_137' type='standard_car' route='W_E' depart='810.0' departLane='random' departSpeed='10' />
    <vehicle id='S_W_138' type='standard_car' route='S_W' depart='816.0' departLane='random' departSpeed='10' />
    <vehicle id='E_W_139' type='standard_car' route='E_W' depart='833.0' departLane='random' departSpeed='10' />
    <vehicle id='W_N_140' type='standard_car' route='W_N' depart='834.0' departLane='random' departSpeed='10' />
    <vehicle id='N_S_141' type='standard_car' route='N_S' depart='836.0' departLane='random' departSpeed='10' />
    <vehicle id='N_E_142' type='standard_car' route='N_E' depart='841.0' departLane='random' departSpeed='10' />
    <vehicle id='S_W_143' type='standard_car' route='S_W' depart='843.0' departLane='random' departSpeed='10' />
    <vehicle id='W_N_144' type='standard_car' route='W_N' depart='849.0' departLane='random' departSpeed='10' />
    <vehicle id='W_E_145' type='standard_car' route='W_E' depart='854.0' departLane='random' departSpeed='10' />
    <vehicle id='N_E_146' type='standard_car' route='N_E' depart='855.0' departLane='random' departSpeed='10' />
    <vehicle id='W_N_147' type='standard_car' route='W_N' depart='857.0' departLane='random' departSpeed='10' />
    <vehicle id='N_E_148' type='standard_car' route='N_E' depart='859.0' departLane='random' departSpeed='10' />
    <vehicle id='E_S_149' type='standard_car' route='E_S' depart='862.0' departLane='random' departSpeed='10' />
    <vehicle id='W_E_150' type='standard_car' route='W_E' depart='864.0' departLane='random' departSpeed='10' />
    <vehicle id='S_N_151' type='standard_car' route='S_N' depart='865.0' departLane='random' departSpeed='10' />
    <vehicle id='E_W_152' type='standard_car' route='E_W' depart='866.0' departLane='random' departSpeed='10' />
    <vehicle id='W_E_153' type='standard_car' route='W_E' depart='868.0' departLane='random' departSpeed='10' />
    <vehicle id='N_E_154' type='standard_car' route='N_E' depart='871.0' departLane='random' departSpeed='10' />
    <vehicle id='E_S_155' type='standard_car' route='E_S' depart='875.0' departLane='random' departSpeed='10' />
    <vehicle id='E_W_156' type='standard_car' route='E_W' depart='880.0' departLane='random' departSpeed='10' />
    <vehicle id='E_S_157' type='standard_car' route='E_S' depart='883.0' departLane='random' departSpeed='10' />
    <vehicle id='N_W_158' type='standard_car' route='N_W' depart='885.0' departLane='random' departSpeed='10' />
    <vehicle id='S_N_159' type='standard_car' route='S_N' depart='887.0' departLane='random' departSpeed='10' />
    <vehicle id='W_N_160' type='standard_car' route='W_N' depart='891.0' departLane='random' departSpeed='10' />
    <vehicle id='N_E_161' type='standard_car' route='N_E' depart='893.0' departLane='random' departSpeed='10' />
    <vehicle id='S_N_162' type='standard_car' route='S_N' depart='899.0' departLane='random' departSpeed='10' />
    <vehicle id='S_W_163' type='standard_car' route='S_W' depart='902.0' departLane='random' departSpeed='10' />
    <vehicle id='N_E_164' type='standard_car' route='N_E' depart='902.0' departLane='random' departSpeed='10' />
    <vehicle id='N_E_165' type='standard_car' route='N_E' depart='905.0' departLane='random' departSpeed='10' />
    <vehicle id='E_W_166' type='standard_car' route='E_W' depart='906.0' departLane='random' departSpeed='10' />
    <vehicle id='S_W_167' type='standard_car' route='S_W' depart='910.0' departLane='random' departSpeed='10' />
    <vehicle id='S_N_168' type='standard_car' route='S_N' depart='912.0' departLane='random' departSpeed='10' />
    <vehicle id='S_N_169' type='standard_car' route='S_N' depart='912.0' departLane='random' departSpeed='10' />
    <vehicle id='S_W_170' type='standard_car' route='S_W' depart='920.0' departLane='random' departSpeed='10' />
    <vehicle id='N_E_171' type='standard_car' route='N_E' depart='922.0' departLane='random' departSpeed='10' />
    <vehicle id='S_E_172' type='standard_car' route='S_E' depart='935.0' departLane='random' departSpeed='10' />
    <vehicle id='W_N_173' type='standard_car' route='W_N' depart='937.0' departLane='random' departSpeed='10' />
    <vehicle id='S_W_174' type='standard_car' route='S_W' depart='937.0' departLane='random' departSpeed='10' />
    <vehicle id='S_W_175' type='standard_car' route='S_W' depart='942.0' departLane='random' departSpeed='10' />
    <vehicle id='S_W_176' type='standard_car' route='S_W' depart='942.0' departLane='random' departSpeed='10' />
    <vehicle id='W_E_177' type='standard_car' route='W_E' depart='943.0' departLane='random' departSpeed='10' />
    <vehicle id='W_N_178' type='standard_car' route='W_N' depart='946.0' departLane='random' departSpeed='10' />
    <vehicle id='W_N_179' type='standard_car' route='W_N' depart='947.0' departLane='random' departSpeed='10' />
    <vehicle id='N_E_180' type='standard_car' route='N_E' depart='948.0' departLane='random' departSpeed='10' />
    <vehicle id='N_E_181' type='standard_car' route='N_E' depart='949.0' departLane='random' departSpeed='10' />
    <vehicle id='E_S_182' type='standard_car' route='E_S' depart='949.0' departLane='random' departSpeed='10' />
    <vehicle id='S_N_183' type='standard_car' route='S_N' depart='949.0' departLane='random' departSpeed='10' />
    <vehicle id='W_N_184' type='standard_car' route='W_N' depart='951.0' departLane='random' departSpeed='10' />
    <vehicle id='E_S_185' type='standard_car' route='E_S' depart='962.0' departLane='random' departSpeed='10' />
    <vehicle id='E_S_186' type='standard_car' route='E_S' depart='964.0' departLane='random' departSpeed='10' />
    <vehicle id='S_N_187' type='standard_car' route='S_N' depart='965.0' departLane='random' departSpeed='10' />
    <vehicle id='S_W_188' type='standard_car' route='S_W' depart='967.0' departLane='random' departSpeed='10' />
    <vehicle id='N_E_189' type='standard_car' route='N_E' depart='971.0' departLane='random' departSpeed='10' />
    <vehicle id='N_S_190' type='standard_car' route='N_S' depart='973.0' departLane='random' departSpeed='10' />
    <vehicle id='E_S_191' type='standard_car' route='E_S' depart='976.0' departLane='random' departSpeed='10' />
    <vehicle id='W_E_192' type='standard_car' route='W_E' depart='976.0' departLane='random' departSpeed='10' />
    <vehicle id='S_E_193' type='standard_car' route='S_E' depart='980.0' departLane='random' departSpeed='10' />
    <vehicle id='N_S_194' type='standard_car' route='N_S' depart='983.0' departLane='random' departSpeed='10' />
    <vehicle id='W_E_195' type='standard_car' route='W_E' depart='987.0' departLane='random' departSpeed='10' />
    <vehicle id='E_W_196' type='standard_car' route='E_W' depart='997.0' departLane='random' departSpeed='10' />
    <vehicle id='W_N_197' type='standard_car' route='W_N' depart='1000.0' departLane='random' departSpeed='10' />
    <vehicle id='W_E_198' type='standard_car' route='W_E' depart='1000.0' departLane='random' departSpeed='10' />
    <vehicle id='W_S_199' type='standard_car' route='W_S' depart='1004.0' departLane='random' departSpeed='10' />
    <vehicle id='N_S_200' type='standard_car' route='N_S' depart='1011.0' departLane='random' departSpeed='10' />
    <vehicle id='S_N_201' type='standard_car' route='S_N' depart='1011.0' departLane='random' departSpeed='10' />
    <vehicle id='W_N_202' type='standard_car' route='W_N' depart='1011.0' departLane='random' departSpeed='10' />
    <vehicle id='S_W_203' type='standard_car' route='S_W' depart='1013.0' departLane='random' departSpeed='10' />
    <vehicle id='S_W_204' type='standard_car' route='S_W' depart='1013.0' departLane='random' departSpeed='10' />
    <vehicle id='S_N_205' type='standard_car' route='S_N' depart='1015.0' departLane='random' departSpeed='10' />
    <vehicle id='W_S_206' type='standard_car' route='W_S' depart='1017.0' departLane='random' departSpeed='10' />
    <vehicle id='E_S_207' type='standard_car' route='E_S' depart='1017.0' departLane='random' departSpeed='10' />
    <vehicle id='S_N_208' type='standard_car' route='S_N' depart='1023.0' departLane='random' departSpeed='10' />
    <vehicle id='W_E_209' type='standard_car' route='W_E' depart='1024.0' departLane='random' departSpeed='10' />
    <vehicle id='N_S_210' type='standard_car' route='N_S' depart='1024.0' departLane='random' departSpeed='10' />
    <vehicle id='E_W_211' type='standard_car' route='E_W' depart='1025.0' departLane='random' departSpeed='10' />
    <vehicle id='N_E_212' type='standard_car' route='N_E' depart='1027.0' departLane='random' departSpeed='10' />
    <vehicle id='N_W_213' type='standard_car' route='N_W' depart='1029.0' departLane='random' departSpeed='10' />
    <vehicle id='N_S_214' type='standard_car' route='N_S' depart='1030.0' departLane='random' departSpeed='10' />
    <vehicle id='S_N_215' type='standard_car' route='S_N' depart='1030.0' departLane='random' departSpeed='10' />
    <vehicle id='E_S_216' type='standard_car' route='E_S' depart='1031.0' departLane='random' departSpeed='10' />
    <vehicle id='E_S_217' type='standard_car' route='E_S' depart='1034.0' departLane='random' departSpeed='10' />
    <vehicle id='S_W_218' type='standard_car' route='S_W' depart='1042.0' departLane='random' departSpeed='10' />
    <vehicle id='S_W_219' type='standard_car' route='S_W' depart='1043.0' departLane='random' departSpeed='10' />
    <vehicle id='E_S_220' type='standard_car' route='E_S' depart='1046.0' departLane='random' departSpeed='10' />
    <vehicle id='S_N_221' type='standard_car' route='S_N' depart='1050.0' departLane='random' departSpeed='10' />
    <vehicle id='S_N_222' type='standard_car' route='S_N' depart='1051.0' departLane='random' departSpeed='10' />
    <vehicle id='N_S_223' type='standard_car' route='N_S' depart='1051.0' departLane='random' departSpeed='10' />
    <vehicle id='S_N_224' type='standard_car' route='S_N' depart='1051.0' departLane='random' departSpeed='10' />
    <vehicle id='E_W_225' type='standard_car' route='E_W' depart='1054.0' departLane='random' departSpeed='10' />
    <vehicle id='W_N_226' type='standard_car' route='W_N' depart='1055.0' departLane='random' departSpeed='10' />
    <vehicle id='N_S_227' type='standard_car' route='N_S' depart='1060.0' departLane='random' departSpeed='10' />
    <vehicle id='N_E_228' type='standard_car' route='N_E' depart='1063.0' departLane='random' departSpeed='10' />
    <vehicle id='N_S_229' type='standard_car' route='N_S' depart='1065.0' departLane='random' departSpeed='10' />
    <vehicle id='W_N_230' type='standard_car' route='W_N' depart='1072.0' departLane='random' departSpeed='10' />
    <vehicle id='W_N_231' type='standard_car' route='W_N' depart='1075.0' departLane='random' departSpeed='10' />
    <vehicle id='E_W_232' type='standard_car' route='E_W' depart='1078.0' departLane='random' departSpeed='10' />
    <vehicle id='E_S_233' type='standard_car' route='E_S' depart='1081.0' departLane='random' departSpeed='10' />
    <vehicle id='W_N_234' type='standard_car' route='W_N' depart='1082.0' departLane='random' departSpeed='10' />
    <vehicle id='W_N_235' type='standard_car' route='W_N' depart='1083.0' departLane='random' departSpeed='10' />
    <vehicle id='S_N_236' type='standard_car' route='S_N' depart='1086.0' departLane='random' departSpeed='10' />
    <vehicle id='E_S_237' type='standard_car' route='E_S' depart='1089.0' departLane='random' departSpeed='10' />
    <vehicle id='S_W_238' type='standard_car' route='S_W' depart='1092.0' departLane='random' departSpeed='10' />
    <vehicle id='N_S_239' type='standard_car' route='N_S' depart='1100.0' departLane='random' departSpeed='10' />
    <vehicle id='E_W_240' type='standard_car' route='E_W' depart='1101.0' departLane='random' departSpeed='10' />
    <vehicle id='W_N_241' type='standard_car' route='W_N' depart='1101.0' departLane='random' departSpeed='10' />
    <vehicle id='E_S_242' type='standard_car' route='E_S' depart='1105.0' departLane='random' departSpeed='10' />
    <vehicle id='W_N_243' type='standard_car' route='W_N' depart='1118.0' departLane='random' departSpeed='10' />
    <vehicle id='S_N_244' type='standard_car' route='S_N' depart='1119.0' departLane='random' departSpeed='10' />
    <vehicle id='N_E_245' type='standard_car' route='N_E' depart='1121.0' departLane='random' departSpeed='10' />
    <vehicle id='W_N_246' type='standard_car' route='W_N' depart='1121.0' departLane='random' departSpeed='10' />
    <vehicle id='N_E_247' type='standard_car' route='N_E' depart='1123.0' departLane='random' departSpeed='10' />
    <vehicle id='S_W_248' type='standard_car' route='S_W' depart='1124.0' departLane='random' departSpeed='10' />
    <vehicle id='S_W_249' type='standard_car' route='S_W' depart='1133.0' departLane='random' departSpeed='10' />
    <vehicle id='E_S_250' type='standard_car' route='E_S' depart='1133.0' departLane='random' departSpeed='10' />
    <vehicle id='W_N_251' type='standard_car' route='W_N' depart='1135.0' departLane='random' departSpeed='10' />
    <vehicle id='N_S_252' type='standard_car' route='N_S' depart='1135.0' departLane='random' departSpeed='10' />
    <vehicle id='S_W_253' type='standard_car' route='S_W' depart='1135.0' departLane='random' departSpeed='10' />
    <vehicle id='N_E_254' type='standard_car' route='N_E' depart='1136.0' departLane='random' departSpeed='10' />
    <vehicle id='E_S_255' type='standard_car' route='E_S' depart='1138.0' departLane='random' departSpeed='10' />
    <vehicle id='S_N_256' type='standard_car' route='S_N' depart='1138.0' departLane='random' departSpeed='10' />
    <vehicle id='W_N_257' type='standard_car' route='W_N' depart='1139.0' departLane='random' departSpeed='10' />
    <vehicle id='N_S_258' type='standard_car' route='N_S' depart='1139.0' departLane='random' departSpeed='10' />