<routes>
        <vType id="standard_car" length="3.0" maxSpeed="15" minGap="1.0" accel="1.0" decel="4.0" />
        <route id="N_S" edges="gneE1 -gneE3"/>
        <route id="N_E" edges="gneE1 -gneE0"/>
        <route id="N_W" edges="gneE1 -gneE2"/>
        <route id="S_W" edges="gneE3 -gneE2"/>
        <route id="S_E" edges="gneE3 -gneE0"/>
        <route id="S_N" edges="gneE3 -gneE1"/>
        
        <route id="W_E" edges="gneE2 -gneE0"/>
        <route id="W_N" edges="gneE2 -gneE1"/>
        <route id="W_S" edges="gneE2 -gneE3"/>
        <route id="E_N" edges="gneE0 -gneE1"/>
        <route id="E_S" edges="gneE0 -gneE3"/>
        <route id="E_W" edges="gneE0 -gneE2"/>
        
    <vehicle id='E_W_0' type='standard_car' route='E_W' depart='29.0' departLane='random' departSpeed='10' />
    <vehicle id='N_E_1' type='standard_car' route='N_E' depart='44.0' departLane='random' departSpeed='10' />
    <vehicle id='S_W_2' type='standard_car' route='S_W' depart='53.0' departLane='random' departSpeed='10' />
    <vehicle id='W_E_3' type='standard_car' route='W_E' depart='54.0' departLane='random' departSpeed='10' />
    <vehicle id='N_E_4' type='standard_car' route='N_E' depart='58.0' departLane='random' departSpeed='10' />
    <vehicle id='S_W_5' type='standard_car' route='S_W' depart='64.0' departLane='random' departSpeed='10' />
    <vehicle id='E_S_6' type='standard_car' route='E_S' depart='82.0' departLane='random' departSpeed='10' />
    <vehicle id='W_N_7' type='standard_car' route='W_N' depart='93.0' departLane='random' departSpeed='10' />
    <vehicle id='S_W_8' type='standard_car' route='S_W' depart='94.0' departLane='random' departSpeed='10' />
    <vehicle id='S_W_9' type='standard_car' route='S_W' depart='96.0' departLane='random' departSpeed='10' />
    <vehicle id='E_S_10' type='standard_car' route='E_S' depart='98.0' departLane='random' departSpeed='10' />
    <vehicle id='E_S_11' type='standard_car' route='E_S' depart='110.0' departLane='random' departSpeed='10' />
    <vehicle id='S_W_12' type='standard_car' route='S_W' depart='124.0' departLane='random' departSpeed='10' />
    <vehicle id='N_S_13' type='standard_car' route='N_S' depart='125.0' departLane='random' departSpeed='10' />
    <vehicle id='S_W_14' type='standard_car' route='S_W' depart='130.0' departLane='random' departSpeed='10' />
    <vehicle id='N_E_15' type='standard_car' route='N_E' depart='140.0' departLane='random' departSpeed='10' />
    <vehicle id='W_E_16' type='standard_car' route='W_E' depart='153.0' departLane='random' departSpeed='10' />
    <vehicle id='E_N_17' type='standard_car' route='E_N' depart='167.0' departLane='random' departSpeed='10' />
    <vehicle id='S_W_18' type='standard_car' route='S_W' depart='173.0' departLane='random' departSpeed='10' />
    <vehicle id='E_S_19' type='standard_car' route='E_S' depart='176.0' departLane='random' departSpeed='10' />
    <vehicle id='N_E_20' type='standard_car' route='N_E' depart='193.0' departLane='random' departSpeed='10' />
    <vehicle id='S_N_21' type='standard_car' route='S_N' depart='199.0' departLane='random' departSpeed='10' />
    <vehicle id='E_S_22' type='standard_car' route='E_S' depart='207.0' departLane='random' departSpeed='10' />
    <vehicle id='S_W_23' type='standard_car' route='S_W' depart='210.0' departLane='random' departSpeed='10' />
    <vehicle id='W_E_24' type='standard_car' route='W_E' depart='214.0' departLane='random' departSpeed='10' />
    <vehicle id='E_W_25' type='standard_car' route='E_W' depart='226.0' departLane='random' departSpeed='10' />
    <vehicle id='W_N_26' type='standard_car' route='W_N' depart='231.0' departLane='random' departSpeed='10' />
    <vehicle id='W_N_27' type='standard_car' route='W_N' depart='231.0' departLane='random' departSpeed='10' />
    <vehicle id='E_S_28' type='standard_car' route='E_S' depart='232.0' departLane='random' departSpeed='10' />
    <vehicle id='W_E_29' type='standard_car' route='W_E' depart='246.0' departLane='random' departSpeed='10' />
    <vehicle id='E_W_30' type='standard_car' route='E_W' depart='257.0' departLane='random' departSpeed='10' />
    <vehicle id='S_W_31' type='standard_car' route='S_W' depart='258.0' departLane='random' departSpeed='10' />
    <vehicle id='E_S_32' type='standard_car' route='E_S' depart='261.0' departLane='random' departSpeed='10' />
    <vehicle id='E_S_33' type='standard_car' route='E_S' depart='266.0' departLane='random' departSpeed='10' />
    <vehicle id='W_E_34' type='standard_car' route='W_E' depart='274.0' departLane='random' departSpeed='10' />
    <vehicle id='E_S_35' type='standard_car' route='E_S' depart='281.0' departLane='random' departSpeed='10' />
    <vehicle id='S_N_36' type='standard_car' route='S_N' depart='287.0' departLane='random' departSpeed='10' />
    <vehicle id='E_S_37' type='standard_car' route='E_S' depart='294.0' departLane='random' departSpeed='10' />
    <vehicle id='W_N_38' type='standard_car' route='W_N' depart='297.0' departLane='random' departSpeed='10' />
    <vehicle id='S_N_39' type='standard_car' route='S_N' depart='302.0' departLane='random' departSpeed='10' />
    <vehicle id='N_E_40' type='standard_car' route='N_E' depart='303.0' departLane='random' departSpeed='10' />
    <vehicle id='E_W_41' type='standard_car' route='E_W' depart='306.0' departLane='random' departSpeed='10' />
    <vehicle id='S_W_42' type='standard_car' route='S_W' depart='308.0' departLane='random' departSpeed='10' />
    <vehicle id='N_E_43' type='standard_car' route='N_E' depart='309.0' departLane='random' departSpeed='10' />
    <vehicle id='N_E_44' type='standard_car' route='N_E' depart='315.0' departLane='random' departSpeed='10' />
    <vehicle id='W_N_45' type='standard_car' route='W_N' depart='316.0' departLane='random' departSpeed='10' />
    <vehicle id='S_W_46' type='standard_car' route='S_W' depart='319.0' departLane='random' departSpeed='10' />
    <vehicle id='N_E_47' type='standard_car' route='N_E' depart='323.0' departLane='random' departSpeed='10' />
    <vehicle id='N_S_48' type='standard_car' route='N_S' depart='324.0' departLane='random' departSpeed='10' />
    <vehicle id='W_N_49' type='standard_car' route='W_N' depart='326.0' departLane='random' departSpeed='10' />
    <vehicle id='S_W_50' type='standard_car' route='S_W' depart='328.0' departLane='random' departSpeed='10' />
    <vehicle id='S_W_51' type='standard_car' route='S_W' depart='331.0' departLane='random' departSpeed='10' />
    <vehicle id='N_S_52' type='standard_car' route='N_S' depart='331.0' departLane='random' departSpeed='10' />
    <vehicle id='E_S_53' type='standard_car' route='E_S' depart='332.0' departLane='random' departSpeed='10' />
    <vehicle id='E_W_54' type='standard_car' route='E_W' depart='332.0' departLane='random' departSpeed='10' />
    <vehicle id='S_W_55' type='standard_car' route='S_W' depart='335.0' departLane='random' departSpeed='10' />
    <vehicle id='W_N_56' type='standard_car' route='W_N' depart='341.0' departLane='random' departSpeed='10' />
    <vehicle id='E_S_57' type='standard_car' route='E_S' depart='343.0' departLane='random' departSpeed='10' />
    <vehicle id='W_N_58' type='standard_car' route='W_N' depart='346.0' departLane='random' departSpeed='10' />
    <vehicle id='W_S_59' type='standard_car' route='W_S' depart='349.0' departLane='random' departSpeed='10' />
    <vehicle id='E_S_60' type='standard_car' route='E_S' depart='350.0' departLane='random' departSpeed='10' />
    <vehicle id='S_N_61' type='standard_car' route='S_N' depart='351.0' departLane='random' departSpeed='10' />
    <vehicle id='S_N_62' type='standard_car' route='S_N' depart='352.0' departLane='random' departSpeed='10' />
    <vehicle id='E_S_63' type='standard_car' route='E_S' depart='353.0' departLane='random' departSpeed='10' />
    <vehicle id='N_E_64' type='standard_car' route='N_E' depart='353.0' departLane='random' departSpeed='10' />
    <vehicle id='S_E_65' type='standard_car' route='S_E' depart='355.0' departLane='random' departSpeed='10' />
    <vehicle id='N_W_66' type='standard_car' route='N_W' depart='358.0' departLane='random' departSpeed='10' />
    <vehicle id='W_E_67' type='standard_car' route='W_E' depart='361.0' departLane='random' departSpeed='10' />
    <vehicle id='W_N_68' type='standard_car' route='W_N' depart='371.0' departLane='random' departSpeed='10' />
    <vehicle id='N_E_69' type='standard_car' route='N_E' depart='375.0' departLane='random' departSpeed='10' />
    <vehicle id='N_E_70' type='standard_car' route='N_E' depart='380.0' departLane='random' departSpeed='10' />
    <vehicle id='N_E_71' type='standard_car' route='N_E' depart='385.0' departLane='random' departSpeed='10' />
    <vehicle id='N_E_72' type='standard_car' route='N_E' depart='387.0' departLane='random' departSpeed='10' />
    <vehicle id='E_S_73' type='standard_car' route='E_S' depart='388.0' departLane='random' departSpeed='10' />
    <vehicle id='N_E_74' type='standard_car' route='N_E' depart='391.0' departLane='random' departSpeed='10' />
    <vehicle id='S_W_75' type='standard_car' route='S_W' depart='391.0' departLane='random' departSpeed='10' />
    <vehicle id='E_S_76' type='standard_car' route='E_S' depart='394.0' departLane='random' departSpeed='10' />
    <vehicle id='N_W_77' type='standard_car' route='N_W' depart='400.0' departLane='random' departSpeed='10' />
    <vehicle id='S_W_78' type='standard_car' route='S_W' depart='404.0' departLane='random' departSpeed='10' />
    <vehicle id='N_E_79' type='standard_car' route='N_E' depart='405.0' departLane='random' departSpeed='10' />
    <vehicle id='W_E_80' type='standard_car' route='W_E' depart='410.0' departLane='random' departSpeed='10' />
    <vehicle id='S_W_81' type='standard_car' route='S_W' depart='426.0' departLane='random' departSpeed='10' />
    <vehicle id='E_S_82' type='standard_car' route='E_S' depart='427.0' departLane='random' departSpeed='10' />
    <vehicle id='N_W_83' type='standard_car' route='N_W' depart='427.0' departLane='random' departSpeed='10' />
    <vehicle id='E_N_84' type='standard_car' route='E_N' depart='428.0' departLane='random' departSpeed='10' />
    <vehicle id='N_S_85' type='standard_car' route='N_S' depart='435.0' departLane='random' departSpeed='10' />
    <vehicle id='S_E_86' type='standard_car' route='S_E' depart='436.0' departLane='random' departSpeed='10' />
    <vehicle id='E_W_87' type='standard_car' route='E_W' depart='437.0' departLane='random' departSpeed='10' />
    <vehicle id='N_S_88' type='standard_car' route='N_S' depart='437.0' departLane='random' departSpeed='10' />
    <vehicle id='W_N_89' type='standard_car' route='W_N' depart='441.0' departLane='random' departSpeed='10' />
    <vehicle id='E_S_90' type='standard_car' route='E_S' depart='441.0' departLane='random' departSpeed='10' />
    <vehicle id='N_E_91' type='standard_car' route='N_E' depart='445.0' departLane='random' departSpeed='10' />
    <vehicle id='S_N_92' type='standard_car' route='S_N' depart='451.0' departLane='random' departSpeed='10' />
    <vehicle id='W_E_93' type='standard_car' route='W_E' depart='452.0' departLane='random' departSpeed='10' />
    <vehicle id='W_N_94' type='standard_car' route='W_N' depart='461.0' departLane='random' departSpeed='10' />
    <vehicle id='S_W_95' type='standard_car' route='S_W' depart='463.0' departLane='random' departSpeed='10' />
    <vehicle id='N_S_96' type='standard_car' route='N_S' depart='466.0' departLane='random' departSpeed='10' />
    <vehicle id='E_W_97' type='standard_car' route='E_W' depart='467.0' departLane='random' departSpeed='10' />
    <vehicle id='E_S_98' type='standard_car' route='E_S' depart='471.0' departLane='random' departSpeed='10' />
    <vehicle id='W_N_99' type='standard_car' route='W_N' depart='471.0' departLane='random' departSpeed='10' />
    <vehicle id='E_S_100' type='standard_car' route='E_S' depart='471.0' departLane='random' departSpeed='10' />
    <vehicle id='N_E_101' type='standard_car' route='N_E' depart='474.0' departLane='random' departSpeed='10' />
    <vehicle id='W_N_102' type='standard_car' route='W_N' depart='476.0' departLane='random' departSpeed='10' />
    <vehicle id='E_W_103' type='standard_car' route='E_W' depart='481.0' departLane='random' departSpeed='10' />
    <vehicle id='S_W_104' type='standard_car' route='S_W' depart='484.0' departLane='random' departSpeed='10' />
    <vehicle id='S_W_105' type='standard_car' route='S_W' depart='488.0' departLane='random' departSpeed='10' />
    <vehicle id='W_E_106' type='standard_car' route='W_E' depart='488.0' departLane='random' departSpeed='10' />
    <vehicle id='S_N_107' type='standard_car' route='S_N' depart='491.0' departLane='random' departSpeed='10' />
    <vehicle id='S_N_108' type='standard_car' route='S_N' depart='493.0' departLane='random' departSpeed='10' />
    <vehicle id='N_E_109' type='standard_car' route='N_E' depart='501.0' departLane='random' departSpeed='10' />
    <vehicle id='W_E_110' type='standard_car' route='W_E' depart='502.0' departLane='random' departSpeed='10' />
    <vehicle id='S_W_111' type='standard_car' route='S_W' depart='504.0' departLane='random' departSpeed='10' />
    <vehicle id='E_W_112' type='standard_car' route='E_W' depart='505.0' departLane='random' departSpeed='10' />
    <vehicle id='S_W_113' type='standard_car' route='S_W' depart='505.0' departLane='random' departSpeed='10' />
    <vehicle id='E_S_114' type='standard_car' route='E_S' depart='513.0' departLane='random' departSpeed='10' />
    <vehicle id='S_E_115' type='standard_car' route='S_E' depart='515.0' departLane='random' departSpeed='10' />
    <vehicle id='S_W_116' type='standard_car' route='S_W' depart='522.0' departLane='random' departSpeed='10' />
    <vehicle id='W_N_117' type='standard_car' route='W_N' depart='531.0' departLane='random' departSpeed='10' />
    <vehicle id='W_N_118' type='standard_car' route='W_N' depart='534.0' departLane='random' departSpeed='10' />
    <vehicle id='E_W_119' type='standard_car' route='E_W' depart='536.0' departLane='random' departSpeed='10' />
    <vehicle id='W_N_120' type='standard_car' route='W_N' depart='536.0' departLane='random' departSpeed='10' />
    <vehicle id='N_E_121' type='standard_car' route='N_E' depart='536.0' departLane='random' departSpeed='10' />
    <vehicle id='E_S_122' type='standard_car' route='E_S' depart='541.0' departLane='random' departSpeed='10' />
    <vehicle id='N_E_123' type='standard_car' route='N_E' depart='542.0' departLane='random' departSpeed='10' />
    <vehicle id='W_N_124' type='standard_car' route='W_N' depart='543.0' departLane='random' departSpeed='10' />
    <vehicle id='W_S_125' type='standard_car' route='W_S' depart='548.0' departLane='random' departSpeed='10' />
    <vehicle id='S_N_126' type='standard_car' route='S_N' depart='549.0' departLane='random' departSpeed='10' />
    <vehicle id='S_W_127' type='standard_car' route='S_W' depart='550.0' departLane='random' departSpeed='10' />
    <vehicle id='W_N_128' type='standard_car' route='W_N' depart='551.0' departLane='random' departSpeed='10' />
    <vehicle id='N_S_129' type='standard_car' route='N_S' depart='555.0' departLane='random' departSpeed='10' />
    <vehicle id='E_N_130' type='standard_car' route='E_N' depart='555.0' departLane='random' departSpeed='10' />
    <vehicle id='S_W_131' type='standard_car' route='S_W' depart='557.0' departLane='random' departSpeed='10' />
    <vehicle id='N_E_132' type='standard_car' route='N_E' depart='558.0' departLane='random' departSpeed='10' />
    <vehicle id='S_W_133' type='standard_car' route='S_W' depart='558.0' departLane='random' departSpeed='10' />
    <vehicle id='S_N_134' type='standard_car' route='S_N' depart='558.0' departLane='random' departSpeed='10' />
    <vehicle id='S_W_135' type='standard_car' route='S_W' depart='559.0' departLane='random' departSpeed='10' />
    <vehicle id='S_E_136' type='standard_car' route='S_E' depart='561.0' departLane='random' departSpeed='10' />
    <vehicle id='E_S_137' type='standard_car' route='E_S' depart='563.0' departLane='random' departSpeed='10' />
    <vehicle id='N_S_138' type='standard_car' route='N_S' depart='564.0' departLane='random' departSpeed='10' />
    <vehicle id='W_N_139' type='standard_car' route='W_N' depart='565.0' departLane='random' departSpeed='10' />
    <vehicle id='S_N_140' type='standard_car' route='S_N' depart='565.0' departLane='random' departSpeed='10' />
    <vehicle id='S_N_141' type='standard_car' route='S_N' depart='566.0' departLane='random' departSpeed='10' />
    <vehicle id='N_W_142' type='standard_car' route='N_W' depart='569.0' departLane='random' departSpeed='10' />
    <vehicle id='E_S_143' type='standard_car' route='E_S' depart='570.0' departLane='random' departSpeed='10' />
    <vehicle id='E_W_144' type='standard_car' route='E_W' depart='573.0' departLane='random' departSpeed='10' />
    <vehicle id='W_N_145' type='standard_car' route='W_N' depart='574.0' departLane='random' departSpeed='10' />
    <vehicle id='N_E_146' type='standard_car' route='N_E' depart='575.0' departLane='random' departSpeed='10' />
    <vehicle id='S_W_147' type='standard_car' route='S_W' depart='576.0' departLane='random' departSpeed='10' />
    <vehicle id='N_S_148' type='standard_car' route='N_S' depart='577.0' departLane='random' departSpeed='10' />
    <vehicle id='E_S_149' type='standard_car' route='E_S' depart='579.0' departLane='random' departSpeed='10' />
    <vehicle id='E_S_150' type='standard_car' route='E_S' depart='580.0' departLane='random' departSpeed='10' />
    <vehicle id='E_N_151' type='standard_car' route='E_N' depart='582.0' departLane='random' departSpeed='10' />
    <vehicle id='E_S_152' type='standard_car' route='E_S' depart='583.0' departLane='random' departSpeed='10' />
    <vehicle id='E_N_153' type='standard_car' route='E_N' depart='583.0' departLane='random' departSpeed='10' />
    <vehicle id='E_S_154' type='standard_car' route='E_S' depart='583.0' departLane='random' departSpeed='10' />
    <vehicle id='W_S_155' type='standard_car' route='W_S' depart='583.0' departLane='random' departSpeed='10' />
    <vehicle id='E_S_156' type='standard_car' route='E_S' depart='586.0' departLane='random' departSpeed='10' />
    <vehicle id='S_W_157' type='standard_car' route='S_W' depart='586.0' departLane='random' departSpeed='10' />
    <vehicle id='N_S_158' type='standard_car' route='N_S' depart='587.0' departLane='random' departSpeed='10' />
    <vehicle id='N_E_159' type='standard_car' route='N_E' depart='589.0' departLane='random' departSpeed='10' />
    <vehicle id='W_N_160' type='standard_car' route='W_N' depart='594.0' departLane='random' departSpeed='10' />
    <vehicle id='S_W_161' type='standard_car' route='S_W' depart='596.0' departLane='random' departSpeed='10' />
    <vehicle id='N_S_162' type='standard_car' route='N_S' depart='597.0' departLane='random' departSpeed='10' />
    <vehicle id='N_E_163' type='standard_car' route='N_E' depart='600.0' departLane='random' departSpeed='10' />
    <vehicle id='E_S_164' type='standard_car' route='E_S' depart='601.0' departLane='random' departSpeed='10' />
    <vehicle id='S_W_165' type='standard_car' route='S_W' depart='604.0' departLane='random' departSpeed='10' />
    <vehicle id='W_E_166' type='standard_car' route='W_E' depart='604.0' departLane='random' departSpeed='10' />
    <vehicle id='E_W_167' type='standard_car' route='E_W' depart='604.0' departLane='random' departSpeed='10' />
    <vehicle id='E_W_168' type='standard_car' route='E_W' depart='604.0' departLane='random' departSpeed='10' />
    <vehicle id='N_W_169' type='standard_car' route='N_W' depart='605.0' departLane='random' departSpeed='10' />
    <vehicle id='E_S_170' type='standard_car' route='E_S' depart='609.0' departLane='random' departSpeed='10' />
    <vehicle id='S_W_171' type='standard_car' route='S_W' depart='610.0' departLane='random' departSpeed='10' />
    <vehicle id='E_S_172' type='standard_car' route='E_S' depart='612.0' departLane='random' departSpeed='10' />
    <vehicle id='S_W_173' type='standard_car' route='S_W' depart='613.0' departLane='random' departSpeed='10' />
    <vehicle id='W_N_174' type='standard_car' route='W_N' depart='614.0' departLane='random' departSpeed='10' />
    <vehicle id='N_S_175' type='standard_car' route='N_S' depart='616.0' departLane='random' departSpeed='10' />
    <vehicle id='N_S_176' type='standard_car' route='N_S' depart='618.0' departLane='random' departSpeed='10' />
    <vehicle id='S_W_177' type='standard_car' route='S_W' depart='619.0' departLane='random' departSpeed='10' />
    <vehicle id='N_W_178' type='standard_car' route='N_W' depart='625.0' departLane='random' departSpeed='10' />
    <vehicle id='W_E_179' type='standard_car' route='W_E' depart='626.0' departLane='random' departSpeed='10' />
    <vehicle id='E_S_180' type='standard_car' route='E_S' depart='627.0' departLane='random' departSpeed='10' />
    <vehicle id='W_N_181' type='standard_car' route='W_N' depart='631.0' departLane='random' departSpeed='10' />
    <vehicle id='E_S_182' type='standard_car' route='E_S' depart='632.0' departLane='random' departSpeed='10' />
    <vehicle id='E_S_183' type='standard_car' route='E_S' depart='632.0' departLane='random' departSpeed='10' />
    <vehicle id='N_E_184' type='standard_car' route='N_E' depart='633.0' departLane='random' departSpeed='10' />
    <vehicle id='W_E_185' type='standard_car' route='W_E' depart='636.0' departLane='random' departSpeed='10' />
    <vehicle id='E_S_186' type='standard_car' route='E_S' depart='636.0' departLane='random' departSpeed='10' />
    <vehicle id='N_E_187' type='standard_car' route='N_E' depart='639.0' departLane='random' departSpeed='10' />
    <vehicle id='W_N_188' type='standard_car' route='W_N' depart='641.0' departLane='random' departSpeed='10' />
    <vehicle id='N_E_189' type='standard_car' route='N_E' depart='644.0' departLane='random' departSpeed='10' />
    <vehicle id='N_E_190' type='standard_car' route='N_E' depart='644.0' departLane='random' departSpeed='10' />
    <vehicle id='E_W_191' type='standard_car' route='E_W' depart='647.0' departLane='random' departSpeed='10' />
    <vehicle id='N_S_192' type='standard_car' route='N_S' depart='648.0' departLane='random' departSpeed='10' />
    <vehicle id='N_W_193' type='standard_car' route='N_W' depart='649.0' departLane='random' departSpeed='10' />
    <vehicle id='W_N_194' type='standard_car' route='W_N' depart='652.0' departLane='random' departSpeed='10' />
    <vehicle id='E_W_195' type='standard_car' route='E_W' depart='654.0' departLane='random' departSpeed='10' />
    <vehicle id='S_W_196' type='standard_car' route='S_W' depart='655.0' departLane='random' departSpeed='10' />
    <vehicle id='S_W_197' type='standard_car' route='S_W' depart='657.0' departLane='random' departSpeed='10' />
    <vehicle id='E_S_198' type='standard_car' route='E_S' depart='658.0' departLane='random' departSpeed='10' />
    <vehicle id='S_W_199' type='standard_car' route='S_W' depart='663.0' departLane='random' departSpeed='10' />
    <vehicle id='N_E_200' type='standard_car' route='N_E' depart='664.0' departLane='random' departSpeed='10' />
    <vehicle id='E_S_201' type='standard_car' route='E_S' depart='665.0' departLane='random' departSpeed='10' />
    <vehicle id='E_W_202' type='standard_car' route='E_W' depart='667.0' departLane='random' departSpeed='10' />
    <vehicle id='W_S_203' type='standard_car' route='W_S' depart='667.0' departLane='random' departSpeed='10' />
    <vehicle id='W_N_204' type='standard_car' route='W_N' depart='667.0' departLane='random' departSpeed='10' />
    <vehicle id='W_N_205' type='standard_car' route='W_N' depart='669.0' departLane='random' departSpeed='10' />
    <vehicle id='N_E_206' type='standard_car' route='N_E' depart='671.0' departLane='random' departSpeed='10' />
    <vehicle id='N_W_207' type='standard_car' route='N_W' depart='671.0' departLane='random' departSpeed='10' />
    <vehicle id='S_W_208' type='standard_car' route='S_W' depart='674.0' departLane='random' departSpeed='10' />
    <vehicle id='W_N_209' type='standard_car' route='W_N' depart='678.0' departLane='random' departSpeed='10' />
    <vehicle id='E_S_210' type='standard_car' route='E_S' depart='683.0' departLane='random' departSpeed='10' />
    <vehicle id='S_W_211' type='standard_car' route='S_W' depart='683.0' departLane='random' departSpeed='10' />
    <vehicle id='S_W_212' type='standard_car' route='S_W' depart='686.0' departLane='random' departSpeed='10' />
    <vehicle id='W_N_213' type='standard_car' route='W_N' depart='686.0' departLane='random' departSpeed='10' />
    <vehicle id='S_W_214' type='standard_car' route='S_W' depart='692.0' departLane='random' departSpeed='10' />
    <vehicle id='N_S_215' type='standard_car' route='N_S' depart='692.0' departLane='random' departSpeed='10' />
    <vehicle id='E_W_216' type='standard_car' route='E_W' depart='693.0' departLane='random' departSpeed='10' />
    <vehicle id='S_W_217' type='standard_car' route='S_W' depart='693.0' departLane='random' departSpeed='10' />
    <vehicle id='E_S_218' type='standard_car' route='E_S' depart='698.0' departLane='random' departSpeed='10' />
    <vehicle id='N_S_219' type='standard_car' route='N_S' depart='703.0' departLane='random' departSpeed='10' />
    <vehicle id='N_E_220' type='standard_car' route='N_E' depart='703.0' departLane='random' departSpeed='10' />
    <vehicle id='E_N_221' type='standard_car' route='E_N' depart='707.0' departLane='random' departSpeed='10' />
    <vehicle id='E_S_222' type='standard_car' route='E_S' depart='707.0' departLane='random' departSpeed='10' />
    <vehicle id='W_N_223' type='standard_car' route='W_N' depart='709.0' departLane='random' departSpeed='10' />
    <vehicle id='S_W_224' type='standard_car' route='S_W' depart='710.0' departLane='random' departSpeed='10' />
    <vehicle id='N_S_225' type='standard_car' route='N_S' depart='710.0' departLane='random' departSpeed='10' />
    <vehicle id='W_N_226' type='standard_car' route='W_N' depart='713.0' departLane='random' departSpeed='10' />
    <vehicle id='S_W_227' type='standard_car' route='S_W' depart='715.0' departLane='random' departSpeed='10' />
    <vehicle id='W_N_228' type='standard_car' route='W_N' depart='716.0' departLane='random' departSpeed='10' />
    <vehicle id='N_S_229' type='standard_car' route='N_S' depart='716.0' departLane='random' departSpeed='10' />
    <vehicle id='S_W_230' type='standard_car' route='S_W' depart='718.0' departLane='random' departSpeed='10' />
    <vehicle id='N_E_231' type='standard_car' route='N_E' depart='719.0' departLane='random' departSpeed='10' />
    <vehicle id='N_S_232' type='standard_car' route='N_S' depart='719.0' departLane='random' departSpeed='10' />
    <vehicle id='N_W_233' type='standard_car' route='N_W' depart='720.0' departLane='random' departSpeed='10' />
    <vehicle id='W_N_234' type='standard_car' route='W_N' depart='721.0' departLane='random' departSpeed='10' />
    <vehicle id='W_N_235' type='standard_car' route='W_N' depart='725.0' departLane='random' departSpeed='10' />
    <vehicle id='W_E_236' type='standard_car' route='W_E' depart='725.0' departLane='random' departSpeed='10' />
    <vehicle id='W_N_237' type='standard_car' route='W_N' depart='726.0' departLane='random' departSpeed='10' />
    <vehicle id='N_E_238' type='standard_car' route='N_E' depart='727.0' departLane='random' departSpeed='10' />
    <vehicle id='S_W_239' type='standard_car' route='S_W' depart='728.0' departLane='random' departSpeed='10' />
    <vehicle id='S_W_240' type='standard_car' route='S_W' depart='728.0' departLane='random' departSpeed='10' />
    <vehicle id='N_S_241' type='standard_car' route='N_S' depart='728.0' departLane='random' departSpeed='10' />
    <vehicle id='E_W_242' type='standard_car' route='E_W' depart='728.0' departLane='random' departSpeed='10' />
    <vehicle id='N_E_243' type='standard_car' route='N_E' depart='728.0' departLane='random' departSpeed='10' />
    <vehicle id='N_E_244' type='standard_car' route='N_E' depart='729.0' departLane='random' departSpeed='10' />
    <vehicle id='W_N_245' type='standard_car' route='W_N' depart='730.0' departLane='random' departSpeed='10' />
    <vehicle id='S_W_246' type='standard_car' route='S_W' depart='730.0' departLane='random' departSpeed='10' />
    <vehicle id='E_W_247' type='standard_car' route='E_W' depart='730.0' departLane='random' departSpeed='10' />
    <vehicle id='E_S_248' type='standard_car' route='E_S' depart='730.0' departLane='random' departSpeed='10' />
    <vehicle id='N_S_249' type='standard_car' route='N_S' depart='732.0' departLane='random' departSpeed='10' />
    <vehicle id='S_W_250' type='standard_car' route='S_W' depart='732.0' departLane='random' departSpeed='10' />
    <vehicle id='E_S_251' type='standard_car' route='E_S' depart='733.0' departLane='random' departSpeed='10' />
    <vehicle id='N_E_252' type='standard_car' route='N_E' depart='734.0' departLane='random' departSpeed='10' />
    <vehicle id='E_W_253' type='standard_car' route='E_W' depart='736.0' departLane='random' departSpeed='10' />
    <vehicle id='N_E_254' type='standard_car' route='N_E' depart='744.0' departLane='random' departSpeed='10' />
    <vehicle id='W_N_255' type='standard_car' route='W_N' depart='746.0' departLane='random' departSpeed='10' />
    <vehicle id='E_W_256' type='standard_car' route='E_W' depart='746.0' departLane='random' departSpeed='10' />
    <vehicle id='N_E_257' type='standard_car' route='N_E' depart='747.0' departLane='random' departSpeed='10' />
    <vehicle id='W_S_258' type='standard_car' route='W_S' depart='749.0' departLane='random' departSpeed='10' />
    <vehicle id='W_E_259' type='standard_car' route='W_E' depart='751.0' departLane='random' departSpeed='10' />