<routes>
        <vType id="standard_car" length="3.0" maxSpeed="15" minGap="1.0" accel="1.0" decel="4.0" />
        <route id="N_S" edges="gneE1 -gneE3"/>
        <route id="N_E" edges="gneE1 -gneE0"/>
        <route id="N_W" edges="gneE1 -gneE2"/>
        <route id="S_W" edges="gneE3 -gneE2"/>
        <route id="S_E" edges="gneE3 -gneE0"/>
        <route id="S_N" edges="gneE3 -gneE1"/>
        
        <route id="W_E" edges="gneE2 -gneE0"/>
        <route id="W_N" edges="gneE2 -gneE1"/>
        <route id="W_S" edges="gneE2 -gneE3"/>
        <route id="E_N" edges="gneE0 -gneE1"/>
        <route id="E_S" edges="gneE0 -gneE3"/>
        <route id="E_W" edges="gneE0 -gneE2"/>
        
    <vehicle id='E_S_0' type='standard_car' route='E_S' depart='28.0' departLane='random' departSpeed='10' />
    <vehicle id='E_N_1' type='standard_car' route='E_N' depart='33.0' departLane='random' departSpeed='10' />
    <vehicle id='N_E_2' type='standard_car' route='N_E' depart='44.0' departLane='random' departSpeed='10' />
    <vehicle id='W_N_3' type='standard_car' route='W_N' depart='50.0' departLane='random' departSpeed='10' />
    <vehicle id='E_S_4' type='standard_car' route='E_S' depart='51.0' departLane='random' departSpeed='10' />
    <vehicle id='E_S_5' type='standard_car' route='E_S' depart='53.0' departLane='random' departSpeed='10' />
    <vehicle id='W_E_6' type='standard_car' route='W_E' depart='53.0' departLane='random' departSpeed='10' />
    <vehicle id='S_N_7' type='standard_car' route='S_N' depart='54.0' departLane='random' departSpeed='10' />
    <vehicle id='N_W_8' type='standard_car' route='N_W' depart='56.0' departLane='random' departSpeed='10' />
    <vehicle id='S_E_9' type='standard_car' route='S_E' depart='62.0' departLane='random' departSpeed='10' />
    <vehicle id='S_N_10' type='standard_car' route='S_N' depart='69.0' departLane='random' departSpeed='10' />
    <vehicle id='S_N_11' type='standard_car' route='S_N' depart='74.0' departLane='random' departSpeed='10' />
    <vehicle id='E_W_12' type='standard_car' route='E_W' depart='76.0' departLane='random' departSpeed='10' />
    <vehicle id='W_N_13' type='standard_car' route='W_N' depart='78.0' departLane='random' departSpeed='10' />
    <vehicle id='W_N_14' type='standard_car' route='W_N' depart='83.0' departLane='random' departSpeed='10' />
    <vehicle id='E_W_15' type='standard_car' route='E_W' depart='83.0' departLane='random' departSpeed='10' />
    <vehicle id='W_S_16' type='standard_car' route='W_S' depart='85.0' departLane='random' departSpeed='10' />
    <vehicle id='E_W_17' type='standard_car' route='E_W' depart='90.0' departLane='random' departSpeed='10' />
    <vehicle id='S_W_18' type='standard_car' route='S_W' depart='91.0' departLane='random' departSpeed='10' />
    <vehicle id='N_W_19' type='standard_car' route='N_W' depart='93.0' departLane='random' departSpeed='10' />
    <vehicle id='E_W_20' type='standard_car' route='E_W' depart='94.0' departLane='random' departSpeed='10' />
    <vehicle id='N_W_21' type='standard_car' route='N_W' depart='98.0' departLane='random' departSpeed='10' />
    <vehicle id='S_N_22' type='standard_car' route='S_N' depart='99.0' departLane='random' departSpeed='10' />
    <vehicle id='E_W_23' type='standard_car' route='E_W' depart='103.0' departLane='random' departSpeed='10' />
    <vehicle id='W_N_24' type='standard_car' route='W_N' depart='103.0' departLane='random' departSpeed='10' />
    <vehicle id='E_N_25' type='standard_car' route='E_N' depart='107.0' departLane='random' departSpeed='10' />
    <vehicle id='E_S_26' type='standard_car' route='E_S' depart='109.0' departLane='random' departSpeed='10' />
    <vehicle id='N_E_27' type='standard_car' route='N_E' depart='110.0' departLane='random' departSpeed='10' />
    <vehicle id='S_E_28' type='standard_car' route='S_E' depart='115.0' departLane='random' departSpeed='10' />
    <vehicle id='S_N_29' type='standard_car' route='S_N' depart='115.0' departLane='random' departSpeed='10' />
    <vehicle id='N_S_30' type='standard_car' route='N_S' depart='118.0' departLane='random' departSpeed='10' />
    <vehicle id='E_N_31' type='standard_car' route='E_N' depart='123.0' departLane='random' departSpeed='10' />
    <vehicle id='E_N_32' type='standard_car' route='E_N' depart='123.0' departLane='random' departSpeed='10' />
    <vehicle id='N_S_33' type='standard_car' route='N_S' depart='124.0' departLane='random' departSpeed='10' />
    <vehicle id='W_N_34' type='standard_car' route='W_N' depart='125.0' departLane='random' departSpeed='10' />
    <vehicle id='E_N_35' type='standard_car' route='E_N' depart='129.0' departLane='random' departSpeed='10' />
    <vehicle id='E_W_36' type='standard_car' route='E_W' depart='130.0' departLane='random' departSpeed='10' />
    <vehicle id='E_N_37' type='standard_car' route='E_N' depart='133.0' departLane='random' departSpeed='10' />
    <vehicle id='N_S_38' type='standard_car' route='N_S' depart='133.0' departLane='random' departSpeed='10' />
    <vehicle id='N_S_39' type='standard_car' route='N_S' depart='133.0' departLane='random' departSpeed='10' />
    <vehicle id='W_S_40' type='standard_car' route='W_S' depart='137.0' departLane='random' departSpeed='10' />
    <vehicle id='N_W_41' type='standard_car' route='N_W' depart='139.0' departLane='random' departSpeed='10' />
    <vehicle id='S_N_42' type='standard_car' route='S_N' depart='142.0' departLane='random' departSpeed='10' />
    <vehicle id='N_E_43' type='standard_car' route='N_E' depart='143.0' departLane='random' departSpeed='10' />
    <vehicle id='W_N_44' type='standard_car' route='W_N' depart='144.0' departLane='random' departSpeed='10' />
    <vehicle id='W_E_45' type='standard_car' route='W_E' depart='144.0' departLane='random' departSpeed='10' />
    <vehicle id='E_S_46' type='standard_car' route='E_S' depart='144.0' departLane='random' departSpeed='10' />
    <vehicle id='E_W_47' type='standard_car' route='E_W' depart='145.0' departLane='random' departSpeed='10' />
    <vehicle id='W_E_48' type='standard_car' route='W_E' depart='146.0' departLane='random' departSpeed='10' />
    <vehicle id='N_E_49' type='standard_car' route='N_E' depart='147.0' departLane='random' departSpeed='10' />
    <vehicle id='N_E_50' type='standard_car' route='N_E' depart='147.0' departLane='random' departSpeed='10' />
    <vehicle id='E_S_51' type='standard_car' route='E_S' depart='150.0' departLane='random' departSpeed='10' />
    <vehicle id='N_S_52' type='standard_car' route='N_S' depart='151.0' departLane='random' departSpeed='10' />
    <vehicle id='W_E_53' type='standard_car' route='W_E' depart='157.0' departLane='random' departSpeed='10' />
    <vehicle id='E_S_54' type='standard_car' route='E_S' depart='159.0' departLane='random' departSpeed='10' />
    <vehicle id='E_N_55' type='standard_car' route='E_N' depart='162.0' departLane='random' departSpeed='10' />
    <vehicle id='S_N_56' type='standard_car' route='S_N' depart='164.0' departLane='random' departSpeed='10' />
    <vehicle id='N_S_57' type='standard_car' route='N_S' depart='166.0' departLane='random' departSpeed='10' />
    <vehicle id='N_S_58' type='standard_car' route='N_S' depart='167.0' departLane='random' departSpeed='10' />
    <vehicle id='E_N_59' type='standard_car' route='E_N' depart='170.0' departLane='random' departSpeed='10' />
    <vehicle id='E_S_60' type='standard_car' route='E_S' depart='171.0' departLane='random' departSpeed='10' />
    <vehicle id='N_E_61' type='standard_car' route='N_E' depart='171.0' departLane='random' departSpeed='10' />
    <vehicle id='S_N_62' type='standard_car' route='S_N' depart='173.0' departLane='random' departSpeed='10' />
    <vehicle id='S_N_63' type='standard_car' route='S_N' depart='176.0' departLane='random' departSpeed='10' />
    <vehicle id='W_E_64' type='standard_car' route='W_E' depart='176.0' departLane='random' departSpeed='10' />
    <vehicle id='E_W_65' type='standard_car' route='E_W' depart='177.0' departLane='random' departSpeed='10' />
    <vehicle id='W_E_66' type='standard_car' route='W_E' depart='177.0' departLane='random' departSpeed='10' />
    <vehicle id='S_N_67' type='standard_car' route='S_N' depart='178.0' departLane='random' departSpeed='10' />
    <vehicle id='S_N_68' type='standard_car' route='S_N' depart='179.0' departLane='random' departSpeed='10' />
    <vehicle id='E_N_69' type='standard_car' route='E_N' depart='181.0' departLane='random' departSpeed='10' />
    <vehicle id='E_S_70' type='standard_car' route='E_S' depart='182.0' departLane='random' departSpeed='10' />
    <vehicle id='N_E_71' type='standard_car' route='N_E' depart='182.0' departLane='random' departSpeed='10' />
    <vehicle id='N_E_72' type='standard_car' route='N_E' depart='182.0' departLane='random' departSpeed='10' />
    <vehicle id='W_S_73' type='standard_car' route='W_S' depart='184.0' departLane='random' departSpeed='10' />
    <vehicle id='W_S_74' type='standard_car' route='W_S' depart='185.0' departLane='random' departSpeed='10' />
    <vehicle id='W_S_75' type='standard_car' route='W_S' depart='185.0' departLane='random' departSpeed='10' />
    <vehicle id='S_E_76' type='standard_car' route='S_E' depart='186.0' departLane='random' departSpeed='10' />
    <vehicle id='S_W_77' type='standard_car' route='S_W' depart='188.0' departLane='random' departSpeed='10' />
    <vehicle id='S_E_78' type='standard_car' route='S_E' depart='192.0' departLane='random' departSpeed='10' />
    <vehicle id='E_N_79' type='standard_car' route='E_N' depart='192.0' departLane='random' departSpeed='10' />
    <vehicle id='N_S_80' type='standard_car' route='N_S' depart='193.0' departLane='random' departSpeed='10' />
    <vehicle id='E_S_81' type='standard_car' route='E_S' depart='193.0' departLane='random' departSpeed='10' />
    <vehicle id='W_E_82' type='standard_car' route='W_E' depart='201.0' departLane='random' departSpeed='10' />
    <vehicle id='S_E_83' type='standard_car' route='S_E' depart='203.0' departLane='random' departSpeed='10' />
    <vehicle id='E_W_84' type='standard_car' route='E_W' depart='203.0' departLane='random' departSpeed='10' />
    <vehicle id='N_W_85' type='standard_car' route='N_W' depart='203.0' departLane='random' departSpeed='10' />
    <vehicle id='E_S_86' type='standard_car' route='E_S' depart='204.0' departLane='random' departSpeed='10' />
    <vehicle id='W_N_87' type='standard_car' route='W_N' depart='204.0' departLane='random' departSpeed='10' />
    <vehicle id='N_S_88' type='standard_car' route='N_S' depart='205.0' departLane='random' departSpeed='10' />
    <vehicle id='E_W_89' type='standard_car' route='E_W' depart='205.0' departLane='random' departSpeed='10' />
    <vehicle id='W_N_90' type='standard_car' route='W_N' depart='205.0' departLane='random' departSpeed='10' />
    <vehicle id='W_S_91' type='standard_car' route='W_S' depart='207.0' departLane='random' departSpeed='10' />
    <vehicle id='N_W_92' type='standard_car' route='N_W' depart='207.0' departLane='random' departSpeed='10' />
    <vehicle id='E_W_93' type='standard_car' route='E_W' depart='210.0' departLane='random' departSpeed='10' />
    <vehicle id='S_E_94' type='standard_car' route='S_E' depart='211.0' departLane='random' departSpeed='10' />
    <vehicle id='N_W_95' type='standard_car' route='N_W' depart='212.0' departLane='random' departSpeed='10' />
    <vehicle id='N_S_96' type='standard_car' route='N_S' depart='213.0' departLane='random' departSpeed='10' />
    <vehicle id='W_N_97' type='standard_car' route='W_N' depart='214.0' departLane='random' departSpeed='10' />
    <vehicle id='W_N_98' type='standard_car' route='W_N' depart='217.0' departLane='random' departSpeed='10' />
    <vehicle id='S_N_99' type='standard_car' route='S_N' depart='217.0' departLane='random' departSpeed='10' />
    <vehicle id='E_W_100' type='standard_car' route='E_W' depart='217.0' departLane='random' departSpeed='10' />
    <vehicle id='E_W_101' type='standard_car' route='E_W' depart='217.0' departLane='random' departSpeed='10' />
    <vehicle id='N_S_102' type='standard_car' route='N_S' depart='218.0' departLane='random' departSpeed='10' />
    <vehicle id='E_W_103' type='standard_car' route='E_W' depart='220.0' departLane='random' departSpeed='10' />
    <vehicle id='S_W_104' type='standard_car' route='S_W' depart='221.0' departLane='random' departSpeed='10' />
    <vehicle id='E_N_105' type='standard_car' route='E_N' depart='221.0' departLane='random' departSpeed='10' />
    <vehicle id='W_E_106' type='standard_car' route='W_E' depart='224.0' departLane='random' departSpeed='10' />
    <vehicle id='S_E_107' type='standard_car' route='S_E' depart='224.0' departLane='random' departSpeed='10' />
    <vehicle id='N_S_108' type='standard_car' route='N_S' depart='224.0' departLane='random' departSpeed='10' />
    <vehicle id='N_S_109' type='standard_car' route='N_S' depart='225.0' departLane='random' departSpeed='10' />
    <vehicle id='N_E_110' type='standard_car' route='N_E' depart='227.0' departLane='random' departSpeed='10' />
    <vehicle id='N_W_111' type='standard_car' route='N_W' depart='228.0' departLane='random' departSpeed='10' />
    <vehicle id='W_E_112' type='standard_car' route='W_E' depart='228.0' departLane='random' departSpeed='10' />
    <vehicle id='N_S_113' type='standard_car' route='N_S' depart='229.0' departLane='random' departSpeed='10' />
    <vehicle id='N_S_114' type='standard_car' route='N_S' depart='229.0' departLane='random' departSpeed='10' />
    <vehicle id='W_N_115' type='standard_car' route='W_N' depart='229.0' departLane='random' departSpeed='10' />
    <vehicle id='S_E_116' type='standard_car' route='S_E' depart='229.0' departLane='random' departSpeed='10' />
    <vehicle id='S_N_117' type='standard_car' route='S_N' depart='230.0' departLane='random' departSpeed='10' />
    <vehicle id='E_N_118' type='standard_car' route='E_N' depart='230.0' departLane='random' departSpeed='10' />
    <vehicle id='E_W_119' type='standard_car' route='E_W' depart='233.0' departLane='random' departSpeed='10' />
    <vehicle id='W_N_120' type='standard_car' route='W_N' depart='233.0' departLane='random' departSpeed='10' />
    <vehicle id='W_N_121' type='standard_car' route='W_N' depart='234.0' departLane='random' departSpeed='10' />
    <vehicle id='N_S_122' type='standard_car' route='N_S' depart='235.0' departLane='random' departSpeed='10' />
    <vehicle id='E_S_123' type='standard_car' route='E_S' depart='236.0' departLane='random' departSpeed='10' />
    <vehicle id='W_N_124' type='standard_car' route='W_N' depart='237.0' departLane='random' departSpeed='10' />
    <vehicle id='W_E_125' type='standard_car' route='W_E' depart='238.0' departLane='random' departSpeed='10' />
    <vehicle id='N_S_126' type='standard_car' route='N_S' depart='238.0' departLane='random' departSpeed='10' />
    <vehicle id='N_E_127' type='standard_car' route='N_E' depart='238.0' departLane='random' departSpeed='10' />
    <vehicle id='N_W_128' type='standard_car' route='N_W' depart='239.0' departLane='random' departSpeed='10' />
    <vehicle id='E_S_129' type='standard_car' route='E_S' depart='239.0' departLane='random' departSpeed='10' />
    <vehicle id='W_E_130' type='standard_car' route='W_E' depart='241.0' departLane='random' departSpeed='10' />
    <vehicle id='E_N_131' type='standard_car' route='E_N' depart='241.0' departLane='random' departSpeed='10' />
    <vehicle id='S_N_132' type='standard_car' route='S_N' depart='242.0' departLane='random' departSpeed='10' />
    <vehicle id='N_S_133' type='standard_car' route='N_S' depart='243.0' departLane='random' departSpeed='10' />
    <vehicle id='W_E_134' type='standard_car' route='W_E' depart='243.0' departLane='random' departSpeed='10' />
    <vehicle id='S_W_135' type='standard_car' route='S_W' depart='244.0' departLane='random' departSpeed='10' />
    <vehicle id='E_W_136' type='standard_car' route='E_W' depart='247.0' departLane='random' departSpeed='10' />
    <vehicle id='W_E_137' type='standard_car' route='W_E' depart='248.0' departLane='random' departSpeed='10' />
    <vehicle id='W_N_138' type='standard_car' route='W_N' depart='250.0' departLane='random' departSpeed='10' />
    <vehicle id='S_E_139' type='standard_car' route='S_E' depart='250.0' departLane='random' departSpeed='10' />
    <vehicle id='S_N_140' type='standard_car' route='S_N' depart='254.0' departLane='random' departSpeed='10' />
    <vehicle id='W_E_141' type='standard_car' route='W_E' depart='256.0' departLane='random' departSpeed='10' />
    <vehicle id='S_N_142' type='standard_car' route='S_N' depart='257.0' departLane='random' departSpeed='10' />
    <vehicle id='N_S_143' type='standard_car' route='N_S' depart='257.0' departLane='random' departSpeed='10' />
    <vehicle id='W_S_144' type='standard_car' route='W_S' depart='257.0' departLane='random' departSpeed='10' />
    <vehicle id='W_E_145' type='standard_car' route='W_E' depart='257.0' departLane='random' departSpeed='10' />
    <vehicle id='N_W_146' type='standard_car' route='N_W' depart='258.0' departLane='random' departSpeed='10' />
    <vehicle id='E_W_147' type='standard_car' route='E_W' depart='260.0' departLane='random' departSpeed='10' />
    <vehicle id='E_W_148' type='standard_car' route='E_W' depart='260.0' departLane='random' departSpeed='10' />
    <vehicle id='S_N_149' type='standard_car' route='S_N' depart='260.0' departLane='random' departSpeed='10' />
    <vehicle id='N_S_150' type='standard_car' route='N_S' depart='261.0' departLane='random' departSpeed='10' />
    <vehicle id='E_W_151' type='standard_car' route='E_W' depart='261.0' departLane='random' departSpeed='10' />
    <vehicle id='W_N_152' type='standard_car' route='W_N' depart='262.0' departLane='random' departSpeed='10' />
    <vehicle id='W_S_153' type='standard_car' route='W_S' depart='264.0' departLane='random' departSpeed='10' />
    <vehicle id='E_W_154' type='standard_car' route='E_W' depart='265.0' departLane='random' departSpeed='10' />
    <vehicle id='E_N_155' type='standard_car' route='E_N' depart='269.0' departLane='random' departSpeed='10' />
    <vehicle id='E_W_156' type='standard_car' route='E_W' depart='270.0' departLane='random' departSpeed='10' />
    <vehicle id='W_N_157' type='standard_car' route='W_N' depart='271.0' departLane='random' departSpeed='10' />
    <vehicle id='W_E_158' type='standard_car' route='W_E' depart='271.0' departLane='random' departSpeed='10' />
    <vehicle id='N_E_159' type='standard_car' route='N_E' depart='274.0' departLane='random' departSpeed='10' />
    <vehicle id='S_W_160' type='standard_car' route='S_W' depart='277.0' departLane='random' departSpeed='10' />
    <vehicle id='S_N_161' type='standard_car' route='S_N' depart='277.0' departLane='random' departSpeed='10' />
    <vehicle id='N_W_162' type='standard_car' route='N_W' depart='277.0' departLane='random' departSpeed='10' />
    <vehicle id='N_S_163' type='standard_car' route='N_S' depart='278.0' departLane='random' departSpeed='10' />
    <vehicle id='S_E_164' type='standard_car' route='S_E' depart='279.0' departLane='random' departSpeed='10' />
    <vehicle id='S_W_165' type='standard_car' route='S_W' depart='281.0' departLane='random' departSpeed='10' />
    <vehicle id='S_W_166' type='standard_car' route='S_W' depart='283.0' departLane='random' departSpeed='10' />
    <vehicle id='W_E_167' type='standard_car' route='W_E' depart='284.0' departLane='random' departSpeed='10' />
    <vehicle id='S_W_168' type='standard_car' route='S_W' depart='287.0' departLane='random' departSpeed='10' />
    <vehicle id='W_E_169' type='standard_car' route='W_E' depart='288.0' departLane='random' departSpeed='10' />
    <vehicle id='N_S_170' type='standard_car' route='N_S' depart='289.0' departLane='random' departSpeed='10' />
    <vehicle id='N_E_171' type='standard_car' route='N_E' depart='290.0' departLane='random' departSpeed='10' />
    <vehicle id='N_S_172' type='standard_car' route='N_S' depart='291.0' departLane='random' departSpeed='10' />
    <vehicle id='E_N_173' type='standard_car' route='E_N' depart='291.0' departLane='random' departSpeed='10' />
    <vehicle id='N_S_174' type='standard_car' route='N_S' depart='291.0' departLane='random' departSpeed='10' />
    <vehicle id='E_W_175' type='standard_car' route='E_W' depart='292.0' departLane='random' departSpeed='10' />
    <vehicle id='S_E_176' type='standard_car' route='S_E' depart='292.0' departLane='random' departSpeed='10' />
    <vehicle id='S_N_177' type='standard_car' route='S_N' depart='293.0' departLane='random' departSpeed='10' />
    <vehicle id='N_E_178' type='standard_car' route='N_E' depart='293.0' departLane='random' departSpeed='10' />
    <vehicle id='N_E_179' type='standard_car' route='N_E' depart='293.0' departLane='random' departSpeed='10' />
    <vehicle id='E_N_180' type='standard_car' route='E_N' depart='293.0' departLane='random' departSpeed='10' />
    <vehicle id='E_W_181' type='standard_car' route='E_W' depart='293.0' departLane='random' departSpeed='10' />
    <vehicle id='S_N_182' type='standard_car' route='S_N' depart='294.0' departLane='random' departSpeed='10' />
    <vehicle id='S_W_183' type='standard_car' route='S_W' depart='296.0' departLane='random' departSpeed='10' />
    <vehicle id='E_W_184' type='standard_car' route='E_W' depart='297.0' departLane='random' departSpeed='10' />
    <vehicle id='N_S_185' type='standard_car' route='N_S' depart='297.0' departLane='random' departSpeed='10' />
    <vehicle id='W_N_186' type='standard_car' route='W_N' depart='301.0' departLane='random' departSpeed='10' />
    <vehicle id='E_S_187' type='standard_car' route='E_S' depart='301.0' departLane='random' departSpeed='10' />
    <vehicle id='S_N_188' type='standard_car' route='S_N' depart='302.0' departLane='random' departSpeed='10' />
    <vehicle id='N_E_189' type='standard_car' route='N_E' depart='302.0' departLane='random' departSpeed='10' />
    <vehicle id='S_W_190' type='standard_car' route='S_W' depart='302.0' departLane='random' departSpeed='10' />
    <vehicle id='W_S_191' type='standard_car' route='W_S' depart='303.0' departLane='random' departSpeed='10' />
    <vehicle id='S_W_192' type='standard_car' route='S_W' depart='305.0' departLane='random' departSpeed='10' />
    <vehicle id='S_W_193' type='standard_car' route='S_W' depart='305.0' departLane='random' departSpeed='10' />
    <vehicle id='S_N_194' type='standard_car' route='S_N' depart='307.0' departLane='random' departSpeed='10' />
    <vehicle id='E_W_195' type='standard_car' route='E_W' depart='308.0' departLane='random' departSpeed='10' />
    <vehicle id='E_W_196' type='standard_car' route='E_W' depart='310.0' departLane='random' departSpeed='10' />
    <vehicle id='S_E_197' type='standard_car' route='S_E' depart='311.0' departLane='random' departSpeed='10' />
    <vehicle id='N_E_198' type='standard_car' route='N_E' depart='311.0' departLane='random' departSpeed='10' />
    <vehicle id='S_N_199' type='standard_car' route='S_N' depart='311.0' departLane='random' departSpeed='10' />
    <vehicle id='E_W_200' type='standard_car' route='E_W' depart='312.0' departLane='random' departSpeed='10' />
    <vehicle id='E_W_201' type='standard_car' route='E_W' depart='312.0' departLane='random' departSpeed='10' />
    <vehicle id='E_W_202' type='standard_car' route='E_W' depart='313.0' departLane='random' departSpeed='10' />
    <vehicle id='S_N_203' type='standard_car' route='S_N' depart='316.0' departLane='random' departSpeed='10' />
    <vehicle id='N_W_204' type='standard_car' route='N_W' depart='318.0' departLane='random' departSpeed='10' />
    <vehicle id='S_W_205' type='standard_car' route='S_W' depart='319.0' departLane='random' departSpeed='10' />
    <vehicle id='S_E_206' type='standard_car' route='S_E' depart='321.0' departLane='random' departSpeed='10' />
    <vehicle id='W_E_207' type='standard_car' route='W_E' depart='322.0' departLane='random' departSpeed='10' />
    <vehicle id='S_N_208' type='standard_car' route='S_N' depart='324.0' departLane='random' departSpeed='10' />
    <vehicle id='S_W_209' type='standard_car' route='S_W' depart='324.0' departLane='random' departSpeed='10' />
    <vehicle id='N_W_210' type='standard_car' route='N_W' depart='324.0' departLane='random' departSpeed='10' />
    <vehicle id='N_E_211' type='standard_car' route='N_E' depart='325.0' departLane='random' departSpeed='10' />
    <vehicle id='E_N_212' type='standard_car' route='E_N' depart='326.0' departLane='random' departSpeed='10' />
    <vehicle id='E_W_213' type='standard_car' route='E_W' depart='327.0' departLane='random' departSpeed='10' />
    <vehicle id='W_E_214' type='standard_car' route='W_E' depart='327.0' departLane='random' departSpeed='10' />
    <vehicle id='N_S_215' type='standard_car' route='N_S' depart='328.0' departLane='random' departSpeed='10' />
    <vehicle id='S_N_216' type='standard_car' route='S_N' depart='328.0' departLane='random' departSpeed='10' />
    <vehicle id='N_S_217' type='standard_car' route='N_S' depart='328.0' departLane='random' departSpeed='10' />
    <vehicle id='S_W_218' type='standard_car' route='S_W' depart='329.0' departLane='random' departSpeed='10' />
    <vehicle id='S_N_219' type='standard_car' route='S_N' depart='330.0' departLane='random' departSpeed='10' />
    <vehicle id='N_S_220' type='standard_car' route='N_S' depart='332.0' departLane='random' departSpeed='10' />
    <vehicle id='S_N_221' type='standard_car' route='S_N' depart='332.0' departLane='random' departSpeed='10' />
    <vehicle id='N_E_222' type='standard_car' route='N_E' depart='335.0' departLane='random' departSpeed='10' />
    <vehicle id='S_N_223' type='standard_car' route='S_N' depart='336.0' departLane='random' departSpeed='10' />
    <vehicle id='E_W_224' type='standard_car' route='E_W' depart='340.0' departLane='random' departSpeed='10' />
    <vehicle id='E_S_225' type='standard_car' route='E_S' depart='341.0' departLane='random' departSpeed='10' />
    <vehicle id='W_S_226' type='standard_car' route='W_S' depart='342.0' departLane='random' departSpeed='10' />
    <vehicle id='N_S_227' type='standard_car' route='N_S' depart='344.0' departLane='random' departSpeed='10' />
    <vehicle id='N_S_228' type='standard_car' route='N_S' depart='345.0' departLane='random' departSpeed='10' />
    <vehicle id='N_E_229' type='standard_car' route='N_E' depart='346.0' departLane='random' departSpeed='10' />
    <vehicle id='S_N_230' type='standard_car' route='S_N' depart='347.0' departLane='random' departSpeed='10' />
    <vehicle id='S_E_231' type='standard_car' route='S_E' depart='349.0' departLane='random' departSpeed='10' />
    <vehicle id='S_E_232' type='standard_car' route='S_E' depart='349.0' departLane='random' departSpeed='10' />
    <vehicle id='W_E_233' type='standard_car' route='W_E' depart='350.0' departLane='random' departSpeed='10' />
    <vehicle id='N_S_234' type='standard_car' route='N_S' depart='354.0' departLane='random' departSpeed='10' />
    <vehicle id='E_N_235' type='standard_car' route='E_N' depart='354.0' departLane='random' departSpeed='10' />
    <vehicle id='S_N_236' type='standard_car' route='S_N' depart='355.0' departLane='random' departSpeed='10' />
    <vehicle id='W_E_237' type='standard_car' route='W_E' depart='356.0' departLane='random' departSpeed='10' />
    <vehicle id='W_E_238' type='standard_car' route='W_E' depart='356.0' departLane='random' departSpeed='10' />
    <vehicle id='E_W_239' type='standard_car' route='E_W' depart='357.0' departLane='random' departSpeed='10' />
    <vehicle id='S_N_240' type='standard_car' route='S_N' depart='357.0' departLane='random' departSpeed='10' />
    <vehicle id='N_W_241' type='standard_car' route='N_W' depart='359.0' departLane='random' departSpeed='10' />
    <vehicle id='E_N_242' type='standard_car' route='E_N' depart='359.0' departLane='random' departSpeed='10' />
    <vehicle id='E_N_243' type='standard_car' route='E_N' depart='359.0' departLane='random' departSpeed='10' />
    <vehicle id='S_N_244' type='standard_car' route='S_N' depart='359.0' departLane='random' departSpeed='10' />
    <vehicle id='S_E_245' type='standard_car' route='S_E' depart='360.0' departLane='random' departSpeed='10' />
    <vehicle id='E_S_246' type='standard_car' route='E_S' depart='360.0' departLane='random' departSpeed='10' />
    <vehicle id='E_N_247' type='standard_car' route='E_N' depart='361.0' departLane='random' departSpeed='10' />
    <vehicle id='W_E_248' type='standard_car' route='W_E' depart='363.0' departLane='random' departSpeed='10' />
    <vehicle id='E_W_249' type='standard_car' route='E_W' depart='363.0' departLane='random' departSpeed='10' />
    <vehicle id='W_E_250' type='standard_car' route='W_E' depart='363.0' departLane='random' departSpeed='10' />
    <vehicle id='S_N_251' type='standard_car' route='S_N' depart='363.0' departLane='random' departSpeed='10' />
    <vehicle id='E_N_252' type='standard_car' route='E_N' depart='364.0' departLane='random' departSpeed='10' />
    <vehicle id='W_E_253' type='standard_car' route='W_E' depart='364.0' departLane='random' departSpeed='10' />
    <vehicle id='E_W_254' type='standard_car' route='E_W' depart='364.0' departLane='random' departSpeed='10' />
    <vehicle id='S_N_255' type='standard_car' route='S_N' depart='365.0' departLane='random' departSpeed='10' />
    <vehicle id='W_N_256' type='standard_car' route='W_N' depart='365.0' departLane='random' departSpeed='10' />
    <vehicle id='W_E_257' type='standard_car' route='W_E' depart='365.0' departLane='random' departSpeed='10' />
    <vehicle id='S_N_258' type='standard_car' route='S_N' depart='366.0' departLane='random' departSpeed='10' />
    <vehicle id='S_N_259' type='standard_car' route='S_N' depart='366.0' departLane='random' departSpeed='10' />