<routes>
        <vType id="standard_car" length="3.0" maxSpeed="15" minGap="1.0" accel="1.0" decel="4.0" />
        <route id="N_S" edges="gneE1 -gneE3"/>
        <route id="N_E" edges="gneE1 gneE0"/>
        <route id="N_W" edges="gneE1 -gneE2"/>
        <route id="S_W" edges="gneE3 -gneE2"/>
        <route id="S_E" edges="gneE3 gneE0"/>
        <route id="S_N" edges="gneE3 -gneE1"/>
        
        <route id="W_E" edges="gneE2 gneE0"/>
        <route id="W_N" edges="gneE2 -gneE1"/>
        <route id="W_S" edges="gneE2 -gneE3"/>
        <route id="E_N" edges="-gneE0 -gneE1"/>
        <route id="E_S" edges="-gneE0 -gneE3"/>
        <route id="E_W" edges="-gneE0 -gneE2"/>
        
    <vehicle id='W_E_0' type='standard_car' route='W_E' depart='29.0' departLane='random' departSpeed='10' />
    <vehicle id='W_N_1' type='standard_car' route='W_N' depart='32.0' departLane='random' departSpeed='10' />
    <vehicle id='N_E_2' type='standard_car' route='N_E' depart='33.0' departLane='random' departSpeed='10' />
    <vehicle id='S_N_3' type='standard_car' route='S_N' depart='34.0' departLane='random' departSpeed='10' />
    <vehicle id='S_W_4' type='standard_car' route='S_W' depart='59.0' departLane='random' departSpeed='10' />
    <vehicle id='S_E_5' type='standard_car' route='S_E' depart='60.0' departLane='random' departSpeed='10' />
    <vehicle id='S_N_6' type='standard_car' route='S_N' depart='62.0' departLane='random' departSpeed='10' />
    <vehicle id='N_S_7' type='standard_car' route='N_S' depart='63.0' departLane='random' departSpeed='10' />
    <vehicle id='W_S_8' type='standard_car' route='W_S' depart='68.0' departLane='random' departSpeed='10' />
    <vehicle id='N_S_9' type='standard_car' route='N_S' depart='74.0' departLane='random' departSpeed='10' />
    <vehicle id='N_W_10' type='standard_car' route='N_W' depart='75.0' departLane='random' departSpeed='10' />
    <vehicle id='N_W_11' type='standard_car' route='N_W' depart='80.0' departLane='random' departSpeed='10' />
    <vehicle id='W_S_12' type='standard_car' route='W_S' depart='83.0' departLane='random' departSpeed='10' />
    <vehicle id='E_N_13' type='standard_car' route='E_N' depart='91.0' departLane='random' departSpeed='10' />
    <vehicle id='W_N_14' type='standard_car' route='W_N' depart='92.0' departLane='random' departSpeed='10' />
    <vehicle id='W_S_15' type='standard_car' route='W_S' depart='97.0' departLane='random' departSpeed='10' />
    <vehicle id='S_N_16' type='standard_car' route='S_N' depart='102.0' departLane='random' departSpeed='10' />
    <vehicle id='N_W_17' type='standard_car' route='N_W' depart='106.0' departLane='random' departSpeed='10' />
    <vehicle id='N_W_18' type='standard_car' route='N_W' depart='109.0' departLane='random' departSpeed='10' />
    <vehicle id='N_S_19' type='standard_car' route='N_S' depart='110.0' departLane='random' departSpeed='10' />
    <vehicle id='S_N_20' type='standard_car' route='S_N' depart='112.0' departLane='random' departSpeed='10' />
    <vehicle id='E_W_21' type='standard_car' route='E_W' depart='112.0' departLane='random' departSpeed='10' />
    <vehicle id='S_N_22' type='standard_car' route='S_N' depart='113.0' departLane='random' departSpeed='10' />
    <vehicle id='N_S_23' type='standard_car' route='N_S' depart='116.0' departLane='random' departSpeed='10' />
    <vehicle id='E_N_24' type='standard_car' route='E_N' depart='117.0' departLane='random' departSpeed='10' />
    <vehicle id='W_N_25' type='standard_car' route='W_N' depart='119.0' departLane='random' departSpeed='10' />
    <vehicle id='E_W_26' type='standard_car' route='E_W' depart='119.0' departLane='random' departSpeed='10' />
    <vehicle id='S_W_27' type='standard_car' route='S_W' depart='123.0' departLane='random' departSpeed='10' />
    <vehicle id='W_E_28' type='standard_car' route='W_E' depart='126.0' departLane='random' departSpeed='10' />
    <vehicle id='N_W_29' type='standard_car' route='N_W' depart='131.0' departLane='random' departSpeed='10' />
    <vehicle id='W_E_30' type='standard_car' route='W_E' depart='131.0' departLane='random' departSpeed='10' />
    <vehicle id='N_S_31' type='standard_car' route='N_S' depart='132.0' departLane='random' departSpeed='10' />
    <vehicle id='S_N_32' type='standard_car' route='S_N' depart='138.0' departLane='random' departSpeed='10' />
    <vehicle id='W_S_33' type='standard_car' route='W_S' depart='138.0' departLane='random' departSpeed='10' />
    <vehicle id='E_N_34' type='standard_car' route='E_N' depart='138.0' departLane='random' departSpeed='10' />
    <vehicle id='N_E_35' type='standard_car' route='N_E' depart='140.0' departLane='random' departSpeed='10' />
    <vehicle id='W_N_36' type='standard_car' route='W_N' depart='143.0' departLane='random' departSpeed='10' />
    <vehicle id='S_N_37' type='standard_car' route='S_N' depart='143.0' departLane='random' departSpeed='10' />
    <vehicle id='E_S_38' type='standard_car' route='E_S' depart='144.0' departLane='random' departSpeed='10' />
    <vehicle id='E_W_39' type='standard_car' route='E_W' depart='145.0' departLane='random' departSpeed='10' />
    <vehicle id='N_S_40' type='standard_car' route='N_S' depart='147.0' departLane='random' departSpeed='10' />
    <vehicle id='W_E_41' type='standard_car' route='W_E' depart='149.0' departLane='random' departSpeed='10' />
    <vehicle id='S_N_42' type='standard_car' route='S_N' depart='149.0' departLane='random' departSpeed='10' />
    <vehicle id='S_E_43' type='standard_car' route='S_E' depart='149.0' departLane='random' departSpeed='10' />
    <vehicle id='N_S_44' type='standard_car' route='N_S' depart='150.0' departLane='random' departSpeed='10' />
    <vehicle id='E_N_45' type='standard_car' route='E_N' depart='151.0' departLane='random' departSpeed='10' />
    <vehicle id='W_S_46' type='standard_car' route='W_S' depart='152.0' departLane='random' departSpeed='10' />
    <vehicle id='S_E_47' type='standard_car' route='S_E' depart='152.0' departLane='random' departSpeed='10' />
    <vehicle id='S_N_48' type='standard_car' route='S_N' depart='153.0' departLane='random' departSpeed='10' />
    <vehicle id='W_E_49' type='standard_car' route='W_E' depart='158.0' departLane='random' departSpeed='10' />
    <vehicle id='N_S_50' type='standard_car' route='N_S' depart='160.0' departLane='random' departSpeed='10' />
    <vehicle id='E_N_51' type='standard_car' route='E_N' depart='161.0' departLane='random' departSpeed='10' />
    <vehicle id='W_E_52' type='standard_car' route='W_E' depart='162.0' departLane='random' departSpeed='10' />
    <vehicle id='E_S_53' type='standard_car' route='E_S' depart='163.0' departLane='random' departSpeed='10' />
    <vehicle id='E_S_54' type='standard_car' route='E_S' depart='165.0' departLane='random' departSpeed='10' />
    <vehicle id='E_N_55' type='standard_car' route='E_N' depart='165.0' departLane='random' departSpeed='10' />
    <vehicle id='W_S_56' type='standard_car' route='W_S' depart='166.0' departLane='random' departSpeed='10' />
    <vehicle id='W_E_57' type='standard_car' route='W_E' depart='167.0' departLane='random' departSpeed='10' />
    <vehicle id='W_E_58' type='standard_car' route='W_E' depart='167.0' departLane='random' departSpeed='10' />
    <vehicle id='E_N_59' type='standard_car' route='E_N' depart='170.0' departLane='random' departSpeed='10' />
    <vehicle id='W_S_60' type='standard_car' route='W_S' depart='171.0' departLane='random' departSpeed='10' />
    <vehicle id='W_E_61' type='standard_car' route='W_E' depart='172.0' departLane='random' departSpeed='10' />
    <vehicle id='W_E_62' type='standard_car' route='W_E' depart='173.0' departLane='random' departSpeed='10' />
    <vehicle id='W_E_63' type='standard_car' route='W_E' depart='177.0' departLane='random' departSpeed='10' />
    <vehicle id='N_S_64' type='standard_car' route='N_S' depart='178.0' departLane='random' departSpeed='10' />
    <vehicle id='N_E_65' type='standard_car' route='N_E' depart='180.0' departLane='random' departSpeed='10' />
    <vehicle id='N_W_66' type='standard_car' route='N_W' depart='180.0' departLane='random' departSpeed='10' />
    <vehicle id='N_S_67' type='standard_car' route='N_S' depart='183.0' departLane='random' departSpeed='10' />
    <vehicle id='W_E_68' type='standard_car' route='W_E' depart='183.0' departLane='random' departSpeed='10' />
    <vehicle id='W_E_69' type='standard_car' route='W_E' depart='184.0' departLane='random' departSpeed='10' />
    <vehicle id='N_E_70' type='standard_car' route='N_E' depart='184.0' departLane='random' departSpeed='10' />
    <vehicle id='E_W_71' type='standard_car' route='E_W' depart='188.0' departLane='random' departSpeed='10' />
    <vehicle id='E_S_72' type='standard_car' route='E_S' depart='189.0' departLane='random' departSpeed='10' />
    <vehicle id='W_E_73' type='standard_car' route='W_E' depart='189.0' departLane='random' departSpeed='10' />
    <vehicle id='N_S_74' type='standard_car' route='N_S' depart='192.0' departLane='random' departSpeed='10' />
    <vehicle id='W_N_75' type='standard_car' route='W_N' depart='192.0' departLane='random' departSpeed='10' />
    <vehicle id='S_N_76' type='standard_car' route='S_N' depart='194.0' departLane='random' departSpeed='10' />
    <vehicle id='S_E_77' type='standard_car' route='S_E' depart='195.0' departLane='random' departSpeed='10' />
    <vehicle id='E_N_78' type='standard_car' route='E_N' depart='195.0' departLane='random' departSpeed='10' />
    <vehicle id='S_E_79' type='standard_car' route='S_E' depart='195.0' departLane='random' departSpeed='10' />
    <vehicle id='N_S_80' type='standard_car' route='N_S' depart='195.0' departLane='random' departSpeed='10' />
    <vehicle id='W_E_81' type='standard_car' route='W_E' depart='198.0' departLane='random' departSpeed='10' />
    <vehicle id='W_E_82' type='standard_car' route='W_E' depart='198.0' departLane='random' departSpeed='10' />
    <vehicle id='E_N_83' type='standard_car' route='E_N' depart='198.0' departLane='random' departSpeed='10' />
    <vehicle id='S_E_84' type='standard_car' route='S_E' depart='199.0' departLane='random' departSpeed='10' />
    <vehicle id='N_S_85' type='standard_car' route='N_S' depart='203.0' departLane='random' departSpeed='10' />
    <vehicle id='N_S_86' type='standard_car' route='N_S' depart='205.0' departLane='random' departSpeed='10' />
    <vehicle id='W_N_87' type='standard_car' route='W_N' depart='206.0' departLane='random' departSpeed='10' />
    <vehicle id='N_S_88' type='standard_car' route='N_S' depart='207.0' departLane='random' departSpeed='10' />
    <vehicle id='W_E_89' type='standard_car' route='W_E' depart='208.0' departLane='random' departSpeed='10' />
    <vehicle id='W_E_90' type='standard_car' route='W_E' depart='211.0' departLane='random' departSpeed='10' />
    <vehicle id='E_W_91' type='standard_car' route='E_W' depart='213.0' departLane='random' departSpeed='10' />
    <vehicle id='W_S_92' type='standard_car' route='W_S' depart='213.0' departLane='random' departSpeed='10' />
    <vehicle id='E_N_93' type='standard_car' route='E_N' depart='214.0' departLane='random' departSpeed='10' />
    <vehicle id='W_S_94' type='standard_car' route='W_S' depart='216.0' departLane='random' departSpeed='10' />
    <vehicle id='S_E_95' type='standard_car' route='S_E' depart='216.0' departLane='random' departSpeed='10' />
    <vehicle id='N_S_96' type='standard_car' route='N_S' depart='218.0' departLane='random' departSpeed='10' />
    <vehicle id='W_E_97' type='standard_car' route='W_E' depart='219.0' departLane='random' departSpeed='10' />
    <vehicle id='N_W_98' type='standard_car' route='N_W' depart='222.0' departLane='random' departSpeed='10' />
    <vehicle id='N_E_99' type='standard_car' route='N_E' depart='224.0' departLane='random' departSpeed='10' />
    <vehicle id='E_S_100' type='standard_car' route='E_S' depart='226.0' departLane='random' departSpeed='10' />
    <vehicle id='S_W_101' type='standard_car' route='S_W' depart='229.0' departLane='random' departSpeed='10' />
    <vehicle id='W_E_102' type='standard_car' route='W_E' depart='229.0' departLane='random' departSpeed='10' />
    <vehicle id='W_E_103' type='standard_car' route='W_E' depart='231.0' departLane='random' departSpeed='10' />
    <vehicle id='N_S_104' type='standard_car' route='N_S' depart='232.0' departLane='random' departSpeed='10' />
    <vehicle id='W_E_105' type='standard_car' route='W_E' depart='232.0' departLane='random' departSpeed='10' />
    <vehicle id='N_S_106' type='standard_car' route='N_S' depart='233.0' departLane='random' departSpeed='10' />
    <vehicle id='N_E_107' type='standard_car' route='N_E' depart='233.0' departLane='random' departSpeed='10' />
    <vehicle id='W_E_108' type='standard_car' route='W_E' depart='233.0' departLane='random' departSpeed='10' />
    <vehicle id='N_W_109' type='standard_car' route='N_W' depart='234.0' departLane='random' departSpeed='10' />
    <vehicle id='W_S_110' type='standard_car' route='W_S' depart='235.0' departLane='random' departSpeed='10' />
    <vehicle id='N_E_111' type='standard_car' route='N_E' depart='238.0' departLane='random' departSpeed='10' />
    <vehicle id='E_W_112' type='standard_car' route='E_W' depart='240.0' departLane='random' departSpeed='10' />
    <vehicle id='S_N_113' type='standard_car' route='S_N' depart='242.0' departLane='random' departSpeed='10' />
    <vehicle id='S_N_114' type='standard_car' route='S_N' depart='243.0' departLane='random' departSpeed='10' />
    <vehicle id='S_N_115' type='standard_car' route='S_N' depart='243.0' departLane='random' departSpeed='10' />
    <vehicle id='E_W_116' type='standard_car' route='E_W' depart='244.0' departLane='random' departSpeed='10' />
    <vehicle id='W_E_117' type='standard_car' route='W_E' depart='244.0' departLane='random' departSpeed='10' />
    <vehicle id='S_N_118' type='standard_car' route='S_N' depart='246.0' departLane='random' departSpeed='10' />
    <vehicle id='S_N_119' type='standard_car' route='S_N' depart='249.0' departLane='random' departSpeed='10' />
    <vehicle id='S_E_120' type='standard_car' route='S_E' depart='250.0' departLane='random' departSpeed='10' />
    <vehicle id='W_E_121' type='standard_car' route='W_E' depart='252.0' departLane='random' departSpeed='10' />
    <vehicle id='E_W_122' type='standard_car' route='E_W' depart='253.0' departLane='random' departSpeed='10' />
    <vehicle id='N_W_123' type='standard_car' route='N_W' depart='254.0' departLane='random' departSpeed='10' />
    <vehicle id='N_S_124' type='standard_car' route='N_S' depart='255.0' departLane='random' departSpeed='10' />
    <vehicle id='S_N_125' type='standard_car' route='S_N' depart='256.0' departLane='random' departSpeed='10' />
    <vehicle id='E_N_126' type='standard_car' route='E_N' depart='257.0' departLane='random' departSpeed='10' />
    <vehicle id='W_E_127' type='standard_car' route='W_E' depart='258.0' departLane='random' departSpeed='10' />
    <vehicle id='S_N_128' type='standard_car' route='S_N' depart='260.0' departLane='random' departSpeed='10' />
    <vehicle id='N_S_129' type='standard_car' route='N_S' depart='260.0' departLane='random' departSpeed='10' />
    <vehicle id='W_E_130' type='standard_car' route='W_E' depart='262.0' departLane='random' departSpeed='10' />
    <vehicle id='N_W_131' type='standard_car' route='N_W' depart='262.0' departLane='random' departSpeed='10' />
    <vehicle id='N_S_132' type='standard_car' route='N_S' depart='263.0' departLane='random' departSpeed='10' />
    <vehicle id='S_N_133' type='standard_car' route='S_N' depart='264.0' departLane='random' departSpeed='10' />
    <vehicle id='W_E_134' type='standard_car' route='W_E' depart='266.0' departLane='random' departSpeed='10' />
    <vehicle id='W_E_135' type='standard_car' route='W_E' depart='266.0' departLane='random' departSpeed='10' />
    <vehicle id='E_S_136' type='standard_car' route='E_S' depart='268.0' departLane='random' departSpeed='10' />
    <vehicle id='E_W_137' type='standard_car' route='E_W' depart='268.0' departLane='random' departSpeed='10' />
    <vehicle id='E_W_138' type='standard_car' route='E_W' depart='268.0' departLane='random' departSpeed='10' />
    <vehicle id='E_S_139' type='standard_car' route='E_S' depart='269.0' departLane='random' departSpeed='10' />
    <vehicle id='S_N_140' type='standard_car' route='S_N' depart='270.0' departLane='random' departSpeed='10' />
    <vehicle id='W_S_141' type='standard_car' route='W_S' depart='270.0' departLane='random' departSpeed='10' />
    <vehicle id='W_E_142' type='standard_car' route='W_E' depart='270.0' departLane='random' departSpeed='10' />
    <vehicle id='E_S_143' type='standard_car' route='E_S' depart='273.0' departLane='random' departSpeed='10' />
    <vehicle id='N_S_144' type='standard_car' route='N_S' depart='273.0' departLane='random' departSpeed='10' />
    <vehicle id='N_E_145' type='standard_car' route='N_E' depart='274.0' departLane='random' departSpeed='10' />
    <vehicle id='E_N_146' type='standard_car' route='E_N' depart='274.0' departLane='random' departSpeed='10' />
    <vehicle id='N_E_147' type='standard_car' route='N_E' depart='275.0' departLane='random' departSpeed='10' />
    <vehicle id='E_W_148' type='standard_car' route='E_W' depart='275.0' departLane='random' departSpeed='10' />
    <vehicle id='N_S_149' type='standard_car' route='N_S' depart='276.0' departLane='random' departSpeed='10' />
    <vehicle id='S_N_150' type='standard_car' route='S_N' depart='276.0' departLane='random' departSpeed='10' />
    <vehicle id='N_S_151' type='standard_car' route='N_S' depart='277.0' departLane='random' departSpeed='10' />
    <vehicle id='W_S_152' type='standard_car' route='W_S' depart='277.0' departLane='random' departSpeed='10' />
    <vehicle id='S_E_153' type='standard_car' route='S_E' depart='278.0' departLane='random' departSpeed='10' />
    <vehicle id='N_S_154' type='standard_car' route='N_S' depart='278.0' departLane='random' departSpeed='10' />
    <vehicle id='E_S_155' type='standard_car' route='E_S' depart='279.0' departLane='random' departSpeed='10' />
    <vehicle id='S_N_156' type='standard_car' route='S_N' depart='280.0' departLane='random' departSpeed='10' />
    <vehicle id='E_W_157' type='standard_car' route='E_W' depart='280.0' departLane='random' departSpeed='10' />
    <vehicle id='N_W_158' type='standard_car' route='N_W' depart='280.0' departLane='random' departSpeed='10' />
    <vehicle id='S_E_159' type='standard_car' route='S_E' depart='281.0' departLane='random' departSpeed='10' />
    <vehicle id='N_W_160' type='standard_car' route='N_W' depart='282.0' departLane='random' departSpeed='10' />
    <vehicle id='E_S_161' type='standard_car' route='E_S' depart='282.0' departLane='random' departSpeed='10' />
    <vehicle id='W_E_162' type='standard_car' route='W_E' depart='283.0' departLane='random' departSpeed='10' />
    <vehicle id='S_N_163' type='standard_car' route='S_N' depart='283.0' departLane='random' departSpeed='10' />
    <vehicle id='N_S_164' type='standard_car' route='N_S' depart='283.0' departLane='random' departSpeed='10' />
    <vehicle id='W_E_165' type='standard_car' route='W_E' depart='284.0' departLane='random' departSpeed='10' />
    <vehicle id='N_S_166' type='standard_car' route='N_S' depart='284.0' departLane='random' departSpeed='10' />
    <vehicle id='W_S_167' type='standard_car' route='W_S' depart='285.0' departLane='random' departSpeed='10' />
    <vehicle id='N_W_168' type='standard_car' route='N_W' depart='286.0' departLane='random' departSpeed='10' />
    <vehicle id='N_S_169' type='standard_car' route='N_S' depart='287.0' departLane='random' departSpeed='10' />
    <vehicle id='S_W_170' type='standard_car' route='S_W' depart='287.0' departLane='random' departSpeed='10' />
    <vehicle id='E_W_171' type='standard_car' route='E_W' depart='289.0' departLane='random' departSpeed='10' />
    <vehicle id='N_E_172' type='standard_car' route='N_E' depart='290.0' departLane='random' departSpeed='10' />
    <vehicle id='E_W_173' type='standard_car' route='E_W' depart='290.0' departLane='random' departSpeed='10' />
    <vehicle id='S_E_174' type='standard_car' route='S_E' depart='291.0' departLane='random' departSpeed='10' />
    <vehicle id='E_W_175' type='standard_car' route='E_W' depart='292.0' departLane='random' departSpeed='10' />
    <vehicle id='N_W_176' type='standard_car' route='N_W' depart='292.0' departLane='random' departSpeed='10' />
    <vehicle id='S_N_177' type='standard_car' route='S_N' depart='294.0' departLane='random' departSpeed='10' />
    <vehicle id='E_N_178' type='standard_car' route='E_N' depart='294.0' departLane='random' departSpeed='10' />
    <vehicle id='S_N_179' type='standard_car' route='S_N' depart='295.0' departLane='random' departSpeed='10' />
    <vehicle id='E_N_180' type='standard_car' route='E_N' depart='295.0' departLane='random' departSpeed='10' />
    <vehicle id='E_W_181' type='standard_car' route='E_W' depart='296.0' departLane='random' departSpeed='10' />
    <vehicle id='E_W_182' type='standard_car' route='E_W' depart='296.0' departLane='random' departSpeed='10' />
    <vehicle id='W_N_183' type='standard_car' route='W_N' depart='297.0' departLane='random' departSpeed='10' />
    <vehicle id='E_W_184' type='standard_car' route='E_W' depart='297.0' departLane='random' departSpeed='10' />
    <vehicle id='E_W_185' type='standard_car' route='E_W' depart='298.0' departLane='random' departSpeed='10' />
    <vehicle id='N_W_186' type='standard_car' route='N_W' depart='301.0' departLane='random' departSpeed='10' />
    <vehicle id='E_S_187' type='standard_car' route='E_S' depart='302.0' departLane='random' departSpeed='10' />
    <vehicle id='E_N_188' type='standard_car' route='E_N' depart='304.0' departLane='random' departSpeed='10' />
    <vehicle id='S_N_189' type='standard_car' route='S_N' depart='304.0' departLane='random' departSpeed='10' />
    <vehicle id='S_W_190' type='standard_car' route='S_W' depart='305.0' departLane='random' departSpeed='10' />
    <vehicle id='E_S_191' type='standard_car' route='E_S' depart='305.0' departLane='random' departSpeed='10' />
    <vehicle id='W_S_192' type='standard_car' route='W_S' depart='306.0' departLane='random' departSpeed='10' />
    <vehicle id='S_N_193' type='standard_car' route='S_N' depart='306.0' departLane='random' departSpeed='10' />
    <vehicle id='E_W_194' type='standard_car' route='E_W' depart='307.0' departLane='random' departSpeed='10' />
    <vehicle id='E_N_195' type='standard_car' route='E_N' depart='308.0' departLane='random' departSpeed='10' />
    <vehicle id='W_E_196' type='standard_car' route='W_E' depart='309.0' departLane='random' departSpeed='10' />
    <vehicle id='W_E_197' type='standard_car' route='W_E' depart='310.0' departLane='random' departSpeed='10' />
    <vehicle id='W_S_198' type='standard_car' route='W_S' depart='310.0' departLane='random' departSpeed='10' />
    <vehicle id='E_W_199' type='standard_car' route='E_W' depart='310.0' departLane='random' departSpeed='10' />
    <vehicle id='E_W_200' type='standard_car' route='E_W' depart='310.0' departLane='random' departSpeed='10' />
    <vehicle id='E_S_201' type='standard_car' route='E_S' depart='310.0' departLane='random' departSpeed='10' />
    <vehicle id='E_S_202' type='standard_car' route='E_S' depart='310.0' departLane='random' departSpeed='10' />
    <vehicle id='W_N_203' type='standard_car' route='W_N' depart='311.0' departLane='random' departSpeed='10' />
    <vehicle id='S_W_204' type='standard_car' route='S_W' depart='312.0' departLane='random' departSpeed='10' />
    <vehicle id='N_W_205' type='standard_car' route='N_W' depart='315.0' departLane='random' departSpeed='10' />
    <vehicle id='W_E_206' type='standard_car' route='W_E' depart='316.0' departLane='random' departSpeed='10' />
    <vehicle id='W_E_207' type='standard_car' route='W_E' depart='316.0' departLane='random' departSpeed='10' />
    <vehicle id='N_W_208' type='standard_car' route='N_W' depart='317.0' departLane='random' departSpeed='10' />
    <vehicle id='N_E_209' type='standard_car' route='N_E' depart='319.0' departLane='random' departSpeed='10' />
    <vehicle id='W_N_210' type='standard_car' route='W_N' depart='322.0' departLane='random' departSpeed='10' />
    <vehicle id='S_E_211' type='standard_car' route='S_E' depart='322.0' departLane='random' departSpeed='10' />
    <vehicle id='W_E_212' type='standard_car' route='W_E' depart='326.0' departLane='random' departSpeed='10' />
    <vehicle id='W_N_213' type='standard_car' route='W_N' depart='327.0' departLane='random' departSpeed='10' />
    <vehicle id='S_E_214' type='standard_car' route='S_E' depart='329.0' departLane='random' departSpeed='10' />
    <vehicle id='W_S_215' type='standard_car' route='W_S' depart='329.0' departLane='random' departSpeed='10' />
    <vehicle id='W_N_216' type='standard_car' route='W_N' depart='329.0' departLane='random' departSpeed='10' />
    <vehicle id='S_N_217' type='standard_car' route='S_N' depart='330.0' departLane='random' departSpeed='10' />
    <vehicle id='S_N_218' type='standard_car' route='S_N' depart='330.0' departLane='random' departSpeed='10' />
    <vehicle id='E_N_219' type='standard_car' route='E_N' depart='330.0' departLane='random' departSpeed='10' />
    <vehicle id='E_S_220' type='standard_car' route='E_S' depart='333.0' departLane='random' departSpeed='10' />
    <vehicle id='E_W_221' type='standard_car' route='E_W' depart='335.0' departLane='random' departSpeed='10' />
    <vehicle id='S_N_222' type='standard_car' route='S_N' depart='337.0' departLane='random' departSpeed='10' />
    <vehicle id='E_W_223' type='standard_car' route='E_W' depart='338.0' departLane='random' departSpeed='10' />
    <vehicle id='E_N_224' type='standard_car' route='E_N' depart='338.0' departLane='random' departSpeed='10' />
    <vehicle id='W_S_225' type='standard_car' route='W_S' depart='338.0' departLane='random' departSpeed='10' />
    <vehicle id='W_E_226' type='standard_car' route='W_E' depart='339.0' departLane='random' departSpeed='10' />
    <vehicle id='W_E_227' type='standard_car' route='W_E' depart='340.0' departLane='random' departSpeed='10' />
    <vehicle id='N_S_228' type='standard_car' route='N_S' depart='340.0' departLane='random' departSpeed='10' />
    <vehicle id='N_S_229' type='standard_car' route='N_S' depart='341.0' departLane='random' departSpeed='10' />
    <vehicle id='N_W_230' type='standard_car' route='N_W' depart='344.0' departLane='random' departSpeed='10' />
    <vehicle id='E_W_231' type='standard_car' route='E_W' depart='345.0' departLane='random' departSpeed='10' />
    <vehicle id='E_W_232' type='standard_car' route='E_W' depart='347.0' departLane='random' departSpeed='10' />
    <vehicle id='E_N_233' type='standard_car' route='E_N' depart='347.0' departLane='random' departSpeed='10' />
    <vehicle id='S_W_234' type='standard_car' route='S_W' depart='349.0' departLane='random' departSpeed='10' />
    <vehicle id='N_S_235' type='standard_car' route='N_S' depart='349.0' departLane='random' departSpeed='10' />
    <vehicle id='N_S_236' type='standard_car' route='N_S' depart='350.0' departLane='random' departSpeed='10' />
    <vehicle id='N_E_237' type='standard_car' route='N_E' depart='351.0' departLane='random' departSpeed='10' />
    <vehicle id='N_W_238' type='standard_car' route='N_W' depart='351.0' departLane='random' departSpeed='10' />
    <vehicle id='W_E_239' type='standard_car' route='W_E' depart='352.0' departLane='random' departSpeed='10' />
    <vehicle id='S_E_240' type='standard_car' route='S_E' depart='352.0' departLane='random' departSpeed='10' />
    <vehicle id='N_S_241' type='standard_car' route='N_S' depart='352.0' departLane='random' departSpeed='10' />
    <vehicle id='E_S_242' type='standard_car' route='E_S' depart='352.0' departLane='random' departSpeed='10' />
    <vehicle id='E_W_243' type='standard_car' route='E_W' depart='353.0' departLane='random' departSpeed='10' />
    <vehicle id='W_E_244' type='standard_car' route='W_E' depart='355.0' departLane='random' departSpeed='10' />
    <vehicle id='E_W_245' type='standard_car' route='E_W' depart='355.0' departLane='random' departSpeed='10' />
    <vehicle id='E_N_246' type='standard_car' route='E_N' depart='356.0' departLane='random' departSpeed='10' />
    <vehicle id='N_S_247' type='standard_car' route='N_S' depart='357.0' departLane='random' departSpeed='10' />
    <vehicle id='W_N_248' type='standard_car' route='W_N' depart='358.0' departLane='random' departSpeed='10' />
    <vehicle id='E_W_249' type='standard_car' route='E_W' depart='359.0' departLane='random' departSpeed='10' />
    <vehicle id='N_E_250' type='standard_car' route='N_E' depart='360.0' departLane='random' departSpeed='10' />
    <vehicle id='E_N_251' type='standard_car' route='E_N' depart='360.0' departLane='random' departSpeed='10' />
    <vehicle id='S_E_252' type='standard_car' route='S_E' depart='360.0' departLane='random' departSpeed='10' />
    <vehicle id='W_E_253' type='standard_car' route='W_E' depart='360.0' departLane='random' departSpeed='10' />
    <vehicle id='S_E_254' type='standard_car' route='S_E' depart='361.0' departLane='random' departSpeed='10' />
    <vehicle id='E_W_255' type='standard_car' route='E_W' depart='361.0' departLane='random' departSpeed='10' />
    <vehicle id='S_N_256' type='standard_car' route='S_N' depart='361.0' departLane='random' departSpeed='10' />
    <vehicle id='E_W_257' type='standard_car' route='E_W' depart='361.0' departLane='random' departSpeed='10' />
    <vehicle id='S_E_258' type='standard_car' route='S_E' depart='363.0' departLane='random' departSpeed='10' />
    <vehicle id='S_W_259' type='standard_car' route='S_W' depart='363.0' departLane='random' departSpeed='10' />